
Spectre (R) Circuit Simulator
Version 23.1.0.063 64bit -- 10 Jun 2023
Copyright (C) 1989-2023 Cadence Design Systems, Inc. All rights reserved worldwide. Cadence and Spectre are registered trademarks of Cadence Design Systems, Inc. All others are the property of their respective holders.

Includes RSA BSAFE(R) Cryptographic or Security Protocol Software from RSA Security, Inc.

User: leiyuan   Host: icetserver01   HostID: 7F0100   PID: 289481
Memory  available: 387.2431 GB  physical: 404.9105 GB
Linux   : CentOS Linux release 7 (Core)
CPU Type: Intel(R) Xeon(R) Gold 6230 CPU @ 2.10GHz
        Socket: Processors [Frequency] (Hyperthreaded Processor)
        0:       0 [806.0] ( 80 ),  4 [1645.5] ( 84 ),  8 [884.8] ( 88 )
                12 [1086.3] ( 92 ), 16 [799.9] ( 96 ), 20 [873.0] ( 100 )
                24 [898.5] ( 104 ), 28 [1005.0] ( 108 ), 32 [799.9] ( 112 )
                36 [799.9] ( 116 ), 40 [873.8] ( 120 ), 44 [799.9] ( 124 )
                48 [799.9] ( 128 ), 52 [869.5] ( 132 ), 56 [890.4] ( 136 )
                60 [887.6] ( 140 ), 64 [862.9] ( 144 ), 68 [899.9] ( 148 )
                72 [799.9] ( 152 ), 76 [799.9] ( 156 )
        1:       1 [799.9] ( 81 ),  5 [1206.9] ( 85 ),  9 [844.2] ( 89 )
                13 [800.1] ( 93 ), 17 [800.1] ( 97 ), 21 [853.8] ( 101 )
                25 [898.8] ( 105 ), 29 [936.3] ( 109 ), 33 [827.1] ( 113 )
                37 [799.9] ( 117 ), 41 [846.6] ( 121 ), 45 [812.2] ( 125 )
                49 [814.4] ( 129 ), 53 [799.9] ( 133 ), 57 [799.9] ( 137 )
                61 [799.9] ( 141 ), 65 [799.9] ( 145 ), 69 [829.0] ( 149 )
                73 [799.9] ( 153 ), 77 [800.1] ( 157 )
        2:       2 [799.9] ( 82 ),  6 [847.5] ( 86 ), 10 [890.6] ( 90 )
                14 [889.5] ( 94 ), 18 [799.9] ( 98 ), 22 [801.9] ( 102 )
                26 [799.9] ( 106 ), 30 [799.9] ( 110 ), 34 [799.9] ( 114 )
                38 [799.9] ( 118 ), 42 [799.9] ( 122 ), 46 [799.9] ( 126 )
                50 [886.3] ( 130 ), 54 [799.9] ( 134 ), 58 [800.1] ( 138 )
                62 [799.9] ( 142 ), 66 [799.9] ( 146 ), 70 [799.9] ( 150 )
                74 [799.9] ( 154 ), 78 [799.9] ( 158 )
        3:       3 [799.9] ( 83 ),  7 [1954.8] ( 87 ), 11 [899.0] ( 91 )
                15 [799.9] ( 95 ), 19 [799.9] ( 99 ), 23 [799.9] ( 103 )
                27 [799.9] ( 107 ), 31 [805.3] ( 111 ), 35 [799.9] ( 115 )
                39 [799.9] ( 119 ), 43 [818.3] ( 123 ), 47 [800.1] ( 127 )
                51 [799.9] ( 131 ), 55 [846.5] ( 135 ), 59 [800.1] ( 139 )
                63 [799.9] ( 143 ), 67 [799.9] ( 147 ), 71 [799.9] ( 151 )
                75 [800.1] ( 155 ), 79 [828.0] ( 159 )
        
System load averages (1min, 5min, 15min) : 0.3 %, 0.6 %, 0.4 %
Hyperthreading is enabled
HPC is enabled


Simulating `/data/icdesign/ams/ip_migration/users/leiyuan/ASMigration/ASOP/smic011/simResult/test_diffamp1_tran1.scs' on icetserver01 at 10:44:05 AM, Thur Jan 9, 2025 (process id: 289481).
Current working directory: /data/icdesign/ams/ip_migration/users/leiyuan/cds
Environment variable:
    SPECTRE_DEFAULTS=-E -f psfbin
Command line:
    /opt/icdesign/CAD/cadence/SPECTRE231/tools/bin/spectre -64  \
        /data/icdesign/ams/ip_migration/users/leiyuan/ASMigration/ASOP/smic011/simResult/test_diffamp1_tran1.scs  \
        +escchars =log  \
        /data/icdesign/ams/ip_migration/users/leiyuan/ASMigration/ASOP/smic011/simResult/psf/outtran1_spectre.out  \
        -format psfascii -raw  \
        /data/icdesign/ams/ip_migration/users/leiyuan/ASMigration/ASOP/smic011/simResult/psf  \
        ++aps=moderate +mt=32 +lqtimeout 900 -maxw 5 -maxn 5 +logstatus

Licensing Information:
[10:44:06.287610] Configured Lic search path (22.01-s002): 5280@10.6.64.182:27001@10.6.126.11

Licensing Information:
[10:44:06.364592] Periodic Lic check successful

Loading /opt/icdesign/CAD/cadence/SPECTRE231/tools.lnx86/cmi/lib/64bit/5.0/libinfineon_sh.so ...
Loading /opt/icdesign/CAD/cadence/SPECTRE231/tools.lnx86/cmi/lib/64bit/5.0/libphilips_sh.so ...
Loading /opt/icdesign/CAD/cadence/SPECTRE231/tools.lnx86/cmi/lib/64bit/5.0/libsparam_sh.so ...
Loading /opt/icdesign/CAD/cadence/SPECTRE231/tools.lnx86/cmi/lib/64bit/5.0/libstmodels_sh.so ...
Reading file:  /data/icdesign/ams/ip_migration/users/leiyuan/ASMigration/ASOP/smic011/simResult/test_diffamp1_tran1.scs
Reading file:  /opt/icdesign/CAD/cadence/SPECTRE231/tools.lnx86/spectre/etc/configs/spectre.cfg
Reading file:  /usr/include/stdc-predef.h
Reading file:  /data/icdesign/ams/ip_migration/users/leiyuan/ASMigration/ASOP/smic018/models/spectre/ms018_v1p7_spe.lib
Reading file:  /data/icdesign/ams/ip_migration/users/leiyuan/ASMigration/ASOP/smic018/models/spectre/ms018_v1p7_spe.mdl
Reading file:  /home/shunqidai/Sizing/SizingDemoLinuxSpectre_integer_stdcell/smic018/ckt_netlist/twoStageOpamp2.scs
Time for NDB Parsing: CPU = 248.834 ms, elapsed = 875.99 ms.
Time accumulated: CPU = 436.551 ms, elapsed = 875.994 ms.
Peak resident memory used = 110 Mbytes.

Time for Elaboration: CPU = 38.679 ms, elapsed = 38.8551 ms.
Time accumulated: CPU = 475.551 ms, elapsed = 915.169 ms.
Peak resident memory used = 116 Mbytes.


Notice from spectre during hierarchy flattening.
    The value 'psf' specified for the 'checklimitdest' option will no longer be supported in future releases. Use 'spectre -h' to see other recommended values for the 'checklimitdest' option.


Time for EDB Visiting: CPU = 1.638 ms, elapsed = 2.14911 ms.
Time accumulated: CPU = 477.411 ms, elapsed = 917.539 ms.
Peak resident memory used = 117 Mbytes.


Notice from spectre during initial setup.
    Multithreading is disabled due to the size of the design being too small.


Global user options:
            vabstol = 1e-06
            iabstol = 1e-12
               temp = 27
               gmin = 1e-12
             rforce = 1
           maxnotes = 5
           maxwarns = 5
             digits = 5
               cols = 80
             pivrel = 0.001
           sensfile = ../psf/sens.output
     checklimitdest = psf
               save = allpub
     subcktprobelvl = 2
             reltol = 0.001
               tnom = 27
             scalem = 1
              scale = 1e-06

Scoped user options:

Circuit inventory:
              nodes 9
            bsim3v3 8     
          capacitor 2     
            isource 1     
           resistor 1     
            vsource 3     

Analysis and control statement inventory:
               tran 1     

Output statements:
             .probe 0     
           .measure 0     
               save 0     


Notice from spectre during initial setup.
    Fast APS enabled.

Time for parsing: CPU = 7.179 ms, elapsed = 9.82404 ms.
Time accumulated: CPU = 484.779 ms, elapsed = 927.552 ms.
Peak resident memory used = 119 Mbytes.

~~~~~~~~~~~~~~~~~~~~~~
Pre-Simulation Summary
~~~~~~~~~~~~~~~~~~~~~~
   -   (Fast APS) Multi-threading. The recommended number of threads is 1, consider adding +mt=1 on command line.
~~~~~~~~~~~~~~~~~~~~~~

***************************************************
Transient Analysis `outtran1': time = (0 s -> 1 us)
***************************************************
DC simulation time: CPU = 1.548 ms, elapsed = 1.55306 ms.

Opening the PSFASCII file /data/icdesign/ams/ip_migration/users/leiyuan/ASMigration/ASOP/smic011/simResult/psf/outtran1.tran.tran ...
Important parameter values:
    start = 0 s
    outputstart = 0 s
    stop = 1 us
    step = 1 ns
    maxstep = 20 ns
    ic = all
    useprevic = no
    skipdc = no
    reltol = 1e-03
    abstol(V) = 1 uV
    abstol(I) = 1 pA
    temp = 27 C
    tnom = 27 C
    tempeffects = all
    errpreset = moderate
    method = traponly
    lteratio = 3.5
    relref = sigglobal
    cmin = 0 F
    gmin = 1 pS
    rabsshort = 1 mOhm


Notice from spectre during transient analysis `outtran1'.
    Multithreading is disabled due to the size of the design being too small.


Output and IC/nodeset summary:
                 save   9       (current)
                 save   9       (voltage)

    outtran1: time = 26.55 ns    (2.66 %), step = 4.368 ns     (437 m%)
    outtran1: time = 75.82 ns    (7.58 %), step = 7.571 ns     (757 m%)
    outtran1: time = 129.8 ns      (13 %), step = 19.93 ns     (1.99 %)
    outtran1: time = 189.8 ns      (19 %), step = 20 ns           (2 %)
    outtran1: time = 229.8 ns      (23 %), step = 20 ns           (2 %)
    outtran1: time = 289.8 ns      (29 %), step = 20 ns           (2 %)

Notice from spectre at time = 309.834 ns during transient analysis `outtran1'.
    Found trapezoidal ringing on node Xopamp.net3.

    outtran1: time = 329.8 ns      (33 %), step = 20 ns           (2 %)

Notice from spectre at time = 349.834 ns during transient analysis `outtran1'.
    Found trapezoidal ringing on node Xopamp.net3.
Notice from spectre at time = 369.834 ns during transient analysis `outtran1'.
    Found trapezoidal ringing on node Xopamp.net3.
Notice from spectre at time = 389.834 ns during transient analysis `outtran1'.
    Found trapezoidal ringing on node Xopamp.net3.

    outtran1: time = 389.8 ns      (39 %), step = 20 ns           (2 %)

Notice from spectre at time = 409.834 ns during transient analysis `outtran1'.
    Found trapezoidal ringing on node Xopamp.net3.
        Further occurrences of this notice will be suppressed.

    outtran1: time = 429.8 ns      (43 %), step = 20 ns           (2 %)
    outtran1: time = 489.8 ns      (49 %), step = 20 ns           (2 %)
    outtran1: time = 529.8 ns      (53 %), step = 20 ns           (2 %)
    outtran1: time = 589.8 ns      (59 %), step = 20 ns           (2 %)
    outtran1: time = 629.8 ns      (63 %), step = 20 ns           (2 %)
    outtran1: time = 689.8 ns      (69 %), step = 20 ns           (2 %)
    outtran1: time = 729.8 ns      (73 %), step = 20 ns           (2 %)
    outtran1: time = 789.8 ns      (79 %), step = 20 ns           (2 %)
    outtran1: time = 829.8 ns      (83 %), step = 20 ns           (2 %)
    outtran1: time = 889.8 ns      (89 %), step = 20 ns           (2 %)
    outtran1: time = 929.8 ns      (93 %), step = 20 ns           (2 %)
    outtran1: time = 984.9 ns    (98.5 %), step = 15.08 ns     (1.51 %)
Number of accepted tran steps =             74

Notice from spectre during transient analysis `outtran1'.
    Trapezoidal ringing is detected during tran analysis.
        Please use method=trap for better results and performance.


Maximum value achieved for any signal of each quantity: 
V: V(dd) = 3.3 V
I: I(vdd:p) = 58.47 uA
If your circuit contains signals of the same quantity that are vastly different in size (such as high voltage circuitry combined with low voltage control circuitry), you should consider specifying global option `bin_relref=yes'.

~~~~~~~~~~~~~~~~~~~~~~~~~~~~~~~~~
Post-Transient Simulation Summary
~~~~~~~~~~~~~~~~~~~~~~~~~~~~~~~~~
~~~~~~~~~~~~~~~~~~~~~~~~~~~~~~~~~


During simulation, the CPU load for active processors is :
         1 (27.6 %)      4 (2.6 %)       5 (2.6 %)       8 (28.6 %)
         9 (2.6 %)      11 (13.2 %)     12 (1.3 %)      14 (1.3 %)
        20 (1.3 %)      23 (2.6 %)      24 (1.3 %)      27 (1.3 %)
        31 (1.3 %)      36 (1.3 %)      53 (2.6 %)      55 (1.3 %)
        59 (2.6 %)      63 (1.3 %)      67 (1.3 %)      68 (1.3 %)
        72 (1.3 %)      83 (1.3 %)      84 (1.3 %)      85 (2.6 %)
        86 (66.7 %)     87 (31.2 %)     93 (2.6 %)      97 (1.3 %)
        105 (1.3 %)     109 (2.6 %)     113 (1.3 %)     117 (3.9 %)
        121 (1.3 %)     125 (6.4 %)     128 (1.3 %)     
        Total: 226.0%
Initial condition solution time: CPU = 1.65 ms, elapsed = 1.65701 ms.
Intrinsic tran analysis time:    CPU = 15.422 ms, elapsed = 17.5099 ms.
Total time required for tran analysis `outtran1': CPU = 19.344 ms, elapsed = 22.562 ms, util. = 85.7%.
Time accumulated: CPU = 511.16 ms, elapsed = 958.671 ms.
Peak resident memory used = 122 Mbytes.


Notice from spectre.
    21 notices suppressed.

Licensing Information:
Lic Summary:
[10:44:06.205264] Cdslmd servers:5280@10.6.64.182:27001@10.6.126.11
[10:44:06.205314] Feature usage summary:
[10:44:06.205314] Virtuoso_Multi_mode_Simulation


Aggregate audit (10:44:06 AM, Thur Jan 9, 2025):
Time used: CPU = 513 ms, elapsed = 962 ms, util. = 53.4%.
Time spent in licensing: elapsed = 44.5 ms.
Peak memory used = 123 Mbytes.
Simulation started at: 10:44:05 AM, Thur Jan 9, 2025, ended at: 10:44:06 AM, Thur Jan 9, 2025, with elapsed time (wall clock): 962 ms.
spectre completes with 0 errors, 0 warnings, and 12 notices.
