
Spectre (R) Circuit Simulator
Version 23.1.0.063 64bit -- 10 Jun 2023
Copyright (C) 1989-2023 Cadence Design Systems, Inc. All rights reserved worldwide. Cadence and Spectre are registered trademarks of Cadence Design Systems, Inc. All others are the property of their respective holders.

Includes RSA BSAFE(R) Cryptographic or Security Protocol Software from RSA Security, Inc.

User: leiyuan   Host: icetserver01   HostID: 7F0100   PID: 289542
Memory  available: 387.2455 GB  physical: 404.9105 GB
Linux   : CentOS Linux release 7 (Core)
CPU Type: Intel(R) Xeon(R) Gold 6230 CPU @ 2.10GHz
        Socket: Processors [Frequency] (Hyperthreaded Processor)
        0:       0 [799.9] ( 80 ),  4 [992.8] ( 84 ),  8 [800.1] ( 88 )
                12 [1004.5] ( 92 ), 16 [1437.0] ( 96 ), 20 [894.1] ( 100 )
                24 [849.2] ( 104 ), 28 [1111.9] ( 108 ), 32 [799.9] ( 112 )
                36 [800.1] ( 116 ), 40 [999.6] ( 120 ), 44 [832.0] ( 124 )
                48 [827.5] ( 128 ), 52 [799.9] ( 132 ), 56 [800.1] ( 136 )
                60 [800.1] ( 140 ), 64 [799.9] ( 144 ), 68 [799.9] ( 148 )
                72 [799.9] ( 152 ), 76 [799.9] ( 156 )
        1:       1 [1766.1] ( 81 ),  5 [877.9] ( 85 ),  9 [827.0] ( 89 )
                13 [949.8] ( 93 ), 17 [898.2] ( 97 ), 21 [876.7] ( 101 )
                25 [1494.9] ( 105 ), 29 [1470.3] ( 109 ), 33 [850.7] ( 113 )
                37 [1187.7] ( 117 ), 41 [997.8] ( 121 ), 45 [812.2] ( 125 )
                49 [800.1] ( 129 ), 53 [799.9] ( 133 ), 57 [800.1] ( 137 )
                61 [799.9] ( 141 ), 65 [799.9] ( 145 ), 69 [799.9] ( 149 )
                73 [799.9] ( 153 ), 77 [800.2] ( 157 )
        2:       2 [800.1] ( 82 ),  6 [1900.2] ( 86 ), 10 [799.9] ( 90 )
                14 [800.1] ( 94 ), 18 [799.9] ( 98 ), 22 [819.2] ( 102 )
                26 [800.1] ( 106 ), 30 [799.9] ( 110 ), 34 [799.9] ( 114 )
                38 [800.1] ( 118 ), 42 [800.1] ( 122 ), 46 [800.2] ( 126 )
                50 [799.9] ( 130 ), 54 [799.9] ( 134 ), 58 [799.9] ( 138 )
                62 [799.9] ( 142 ), 66 [800.1] ( 146 ), 70 [799.9] ( 150 )
                74 [800.1] ( 154 ), 78 [800.1] ( 158 )
        3:       3 [862.1] ( 83 ),  7 [1022.7] ( 87 ), 11 [840.2] ( 91 )
                15 [800.1] ( 95 ), 19 [800.2] ( 99 ), 23 [799.9] ( 103 )
                27 [800.1] ( 107 ), 31 [799.9] ( 111 ), 35 [800.2] ( 115 )
                39 [800.1] ( 119 ), 43 [800.1] ( 123 ), 47 [799.9] ( 127 )
                51 [799.9] ( 131 ), 55 [799.9] ( 135 ), 59 [800.1] ( 139 )
                63 [799.9] ( 143 ), 67 [799.9] ( 147 ), 71 [829.3] ( 151 )
                75 [799.9] ( 155 ), 79 [800.1] ( 159 )
        
System load averages (1min, 5min, 15min) : 0.3 %, 0.6 %, 0.4 %
Hyperthreading is enabled
HPC is enabled


Simulating `/data/icdesign/ams/ip_migration/users/leiyuan/ASMigration/ASOP/smic011/simResult/test_diffamp1_tran2.scs' on icetserver01 at 10:44:07 AM, Thur Jan 9, 2025 (process id: 289542).
Current working directory: /data/icdesign/ams/ip_migration/users/leiyuan/cds
Environment variable:
    SPECTRE_DEFAULTS=-E -f psfbin
Command line:
    /opt/icdesign/CAD/cadence/SPECTRE231/tools/bin/spectre -64  \
        /data/icdesign/ams/ip_migration/users/leiyuan/ASMigration/ASOP/smic011/simResult/test_diffamp1_tran2.scs  \
        +escchars =log  \
        /data/icdesign/ams/ip_migration/users/leiyuan/ASMigration/ASOP/smic011/simResult/psf/outtran2_spectre.out  \
        -format psfascii -raw  \
        /data/icdesign/ams/ip_migration/users/leiyuan/ASMigration/ASOP/smic011/simResult/psf  \
        ++aps=moderate +mt=32 +lqtimeout 900 -maxw 5 -maxn 5 +logstatus

Licensing Information:
[10:44:07.287618] Configured Lic search path (22.01-s002): 5280@10.6.64.182:27001@10.6.126.11

Licensing Information:
[10:44:07.247098] Periodic Lic check successful

Loading /opt/icdesign/CAD/cadence/SPECTRE231/tools.lnx86/cmi/lib/64bit/5.0/libinfineon_sh.so ...
Loading /opt/icdesign/CAD/cadence/SPECTRE231/tools.lnx86/cmi/lib/64bit/5.0/libphilips_sh.so ...
Loading /opt/icdesign/CAD/cadence/SPECTRE231/tools.lnx86/cmi/lib/64bit/5.0/libsparam_sh.so ...
Loading /opt/icdesign/CAD/cadence/SPECTRE231/tools.lnx86/cmi/lib/64bit/5.0/libstmodels_sh.so ...
Reading file:  /data/icdesign/ams/ip_migration/users/leiyuan/ASMigration/ASOP/smic011/simResult/test_diffamp1_tran2.scs
Reading file:  /opt/icdesign/CAD/cadence/SPECTRE231/tools.lnx86/spectre/etc/configs/spectre.cfg
Reading file:  /usr/include/stdc-predef.h
Reading file:  /data/icdesign/ams/ip_migration/users/leiyuan/ASMigration/ASOP/smic018/models/spectre/ms018_v1p7_spe.lib
Reading file:  /data/icdesign/ams/ip_migration/users/leiyuan/ASMigration/ASOP/smic018/models/spectre/ms018_v1p7_spe.mdl
Reading file:  /home/shunqidai/Sizing/SizingDemoLinuxSpectre_integer_stdcell/smic018/ckt_netlist/twoStageOpamp2.scs
Time for NDB Parsing: CPU = 269.105 ms, elapsed = 814.736 ms.
Time accumulated: CPU = 467.984 ms, elapsed = 814.741 ms.
Peak resident memory used = 103 Mbytes.

Time for Elaboration: CPU = 37.525 ms, elapsed = 37.694 ms.
Time accumulated: CPU = 505.828 ms, elapsed = 852.756 ms.
Peak resident memory used = 109 Mbytes.


Notice from spectre during hierarchy flattening.
    The value 'psf' specified for the 'checklimitdest' option will no longer be supported in future releases. Use 'spectre -h' to see other recommended values for the 'checklimitdest' option.


Time for EDB Visiting: CPU = 1.813 ms, elapsed = 2.321 ms.
Time accumulated: CPU = 507.861 ms, elapsed = 855.297 ms.
Peak resident memory used = 110 Mbytes.


Notice from spectre during initial setup.
    Multithreading is disabled due to the size of the design being too small.


Global user options:
            vabstol = 1e-06
            iabstol = 1e-12
               temp = 27
               gmin = 1e-12
             rforce = 1
           maxnotes = 5
           maxwarns = 5
             digits = 5
               cols = 80
             pivrel = 0.001
           sensfile = ../psf/sens.output
     checklimitdest = psf
               save = allpub
     subcktprobelvl = 2
             reltol = 0.001
               tnom = 27
             scalem = 1
              scale = 1e-06

Scoped user options:

Circuit inventory:
              nodes 9
            bsim3v3 8     
          capacitor 2     
            isource 1     
           resistor 1     
            vsource 3     

Analysis and control statement inventory:
               tran 1     

Output statements:
             .probe 0     
           .measure 0     
               save 0     


Notice from spectre during initial setup.
    Fast APS enabled.

Time for parsing: CPU = 7.66 ms, elapsed = 10.164 ms.
Time accumulated: CPU = 515.706 ms, elapsed = 865.645 ms.
Peak resident memory used = 112 Mbytes.

~~~~~~~~~~~~~~~~~~~~~~
Pre-Simulation Summary
~~~~~~~~~~~~~~~~~~~~~~
   -   (Fast APS) Multi-threading. The recommended number of threads is 1, consider adding +mt=1 on command line.
~~~~~~~~~~~~~~~~~~~~~~

***************************************************
Transient Analysis `outtran2': time = (0 s -> 1 us)
***************************************************
DC simulation time: CPU = 1.657 ms, elapsed = 1.66321 ms.

Opening the PSFASCII file /data/icdesign/ams/ip_migration/users/leiyuan/ASMigration/ASOP/smic011/simResult/psf/outtran2.tran.tran ...
Important parameter values:
    start = 0 s
    outputstart = 0 s
    stop = 1 us
    step = 1 ns
    maxstep = 20 ns
    ic = all
    useprevic = no
    skipdc = no
    reltol = 1e-03
    abstol(V) = 1 uV
    abstol(I) = 1 pA
    temp = 27 C
    tnom = 27 C
    tempeffects = all
    errpreset = moderate
    method = traponly
    lteratio = 3.5
    relref = sigglobal
    cmin = 0 F
    gmin = 1 pS
    rabsshort = 1 mOhm


Notice from spectre during transient analysis `outtran2'.
    Multithreading is disabled due to the size of the design being too small.


Output and IC/nodeset summary:
                 save   9       (current)
                 save   9       (voltage)

    outtran2: time = 33.66 ns    (3.37 %), step = 8.831 ns     (883 m%)
    outtran2: time = 83.84 ns    (8.38 %), step = 20 ns           (2 %)
    outtran2: time = 126.4 ns    (12.6 %), step = 3.842 ns     (384 m%)
    outtran2: time = 175.3 ns    (17.5 %), step = 13.9 ns      (1.39 %)
    outtran2: time = 237.6 ns    (23.8 %), step = 19.77 ns     (1.98 %)
    outtran2: time = 277.6 ns    (27.8 %), step = 20 ns           (2 %)
    outtran2: time = 337.6 ns    (33.8 %), step = 20 ns           (2 %)
    outtran2: time = 377.6 ns    (37.8 %), step = 20 ns           (2 %)
    outtran2: time = 437.6 ns    (43.8 %), step = 20 ns           (2 %)
    outtran2: time = 477.6 ns    (47.8 %), step = 20 ns           (2 %)
    outtran2: time = 537.6 ns    (53.8 %), step = 20 ns           (2 %)
    outtran2: time = 577.6 ns    (57.8 %), step = 20 ns           (2 %)

Notice from spectre at time = 637.647 ns during transient analysis `outtran2'.
    Found trapezoidal ringing on node vdd:p.

    outtran2: time = 637.6 ns    (63.8 %), step = 20 ns           (2 %)

Notice from spectre at time = 657.647 ns during transient analysis `outtran2'.
    Found trapezoidal ringing on node vdd:p.
Notice from spectre at time = 677.647 ns during transient analysis `outtran2'.
    Found trapezoidal ringing on node vdd:p.

    outtran2: time = 677.6 ns    (67.8 %), step = 20 ns           (2 %)

Notice from spectre at time = 697.647 ns during transient analysis `outtran2'.
    Found trapezoidal ringing on node vdd:p.
Notice from spectre at time = 717.647 ns during transient analysis `outtran2'.
    Found trapezoidal ringing on node vdd:p.
        Further occurrences of this notice will be suppressed.

    outtran2: time = 737.6 ns    (73.8 %), step = 20 ns           (2 %)
    outtran2: time = 777.6 ns    (77.8 %), step = 20 ns           (2 %)
    outtran2: time = 837.6 ns    (83.8 %), step = 20 ns           (2 %)
    outtran2: time = 877.6 ns    (87.8 %), step = 20 ns           (2 %)
    outtran2: time = 937.6 ns    (93.8 %), step = 20 ns           (2 %)
    outtran2: time = 977.6 ns    (97.8 %), step = 20 ns           (2 %)
Number of accepted tran steps =             76

Notice from spectre during transient analysis `outtran2'.
    Trapezoidal ringing is detected during tran analysis.
        Please use method=trap for better results and performance.


Maximum value achieved for any signal of each quantity: 
V: V(dd) = 3.3 V
I: I(vdd:p) = 54.04 uA
If your circuit contains signals of the same quantity that are vastly different in size (such as high voltage circuitry combined with low voltage control circuitry), you should consider specifying global option `bin_relref=yes'.

~~~~~~~~~~~~~~~~~~~~~~~~~~~~~~~~~
Post-Transient Simulation Summary
~~~~~~~~~~~~~~~~~~~~~~~~~~~~~~~~~
~~~~~~~~~~~~~~~~~~~~~~~~~~~~~~~~~


During simulation, the CPU load for active processors is :
         3 (31.9 %)      7 (1.4 %)      10 (1.4 %)      12 (2.8 %)
        13 (14.1 %)     18 (1.4 %)      20 (1.4 %)      24 (21.1 %)
        28 (16.9 %)     32 (4.2 %)      40 (1.4 %)      48 (2.7 %)
        53 (2.8 %)      71 (1.4 %)      81 (1.4 %)      84 (2.8 %)
        85 (22.5 %)     95 (2.8 %)      99 (2.8 %)      100 (9.7 %)
        103 (1.4 %)     107 (2.8 %)     111 (1.4 %)     115 (1.4 %)
        119 (5.6 %)     123 (1.4 %)     127 (5.6 %)     
        Total: 166.8%
Initial condition solution time: CPU = 1.759 ms, elapsed = 1.76501 ms.
Intrinsic tran analysis time:    CPU = 18.106 ms, elapsed = 20.566 ms.
Total time required for tran analysis `outtran2': CPU = 22.517 ms, elapsed = 26.0351 ms, util. = 86.5%.
Time accumulated: CPU = 546.396 ms, elapsed = 901.612 ms.
Peak resident memory used = 116 Mbytes.


Notice from spectre.
    15 notices suppressed.

Licensing Information:
Lic Summary:
[10:44:08.149986] Cdslmd servers:5280@10.6.64.182:27001@10.6.126.11
[10:44:08.150035] Feature usage summary:
[10:44:08.150035] Virtuoso_Multi_mode_Simulation


Aggregate audit (10:44:08 AM, Thur Jan 9, 2025):
Time used: CPU = 549 ms, elapsed = 905 ms, util. = 60.7%.
Time spent in licensing: elapsed = 47.6 ms, percentage of total = 5.26%.
Peak memory used = 116 Mbytes.
Simulation started at: 10:44:07 AM, Thur Jan 9, 2025, ended at: 10:44:08 AM, Thur Jan 9, 2025, with elapsed time (wall clock): 905 ms.
spectre completes with 0 errors, 0 warnings, and 12 notices.
