
Spectre (R) Circuit Simulator
Version 23.1.0.063 64bit -- 10 Jun 2023
Copyright (C) 1989-2023 Cadence Design Systems, Inc. All rights reserved worldwide. Cadence and Spectre are registered trademarks of Cadence Design Systems, Inc. All others are the property of their respective holders.

Includes RSA BSAFE(R) Cryptographic or Security Protocol Software from RSA Security, Inc.

User: leiyuan   Host: icetserver01   HostID: 7F0100   PID: 217680
Memory  available: 384.4990 GB  physical: 404.9105 GB
Linux   : CentOS Linux release 7 (Core)
CPU Type: Intel(R) Xeon(R) Gold 6230 CPU @ 2.10GHz
        Socket: Processors [Frequency] (Hyperthreaded Processor)
        0:       0 [817.6] ( 80 ),  4 [3530.9] ( 84 ),  8 [909.9] ( 88 )
                12 [1094.9] ( 92 ), 16 [986.0] ( 96 ), 20 [799.9] ( 100 )
                24 [800.1] ( 104 ), 28 [995.1] ( 108 ), 32 [800.1] ( 112 )
                36 [995.1] ( 116 ), 40 [989.8] ( 120 ), 44 [995.1] ( 124 )
                48 [995.1] ( 128 ), 52 [799.9] ( 132 ), 56 [806.9] ( 136 )
                60 [799.9] ( 140 ), 64 [824.5] ( 144 ), 68 [995.1] ( 148 )
                72 [835.4] ( 152 ), 76 [800.2] ( 156 )
        1:       1 [1171.4] ( 81 ),  5 [821.2] ( 85 ),  9 [1699.2] ( 89 )
                13 [799.9] ( 93 ), 17 [885.3] ( 97 ), 21 [800.1] ( 101 )
                25 [800.1] ( 105 ), 29 [799.9] ( 109 ), 33 [803.6] ( 113 )
                37 [800.1] ( 117 ), 41 [800.1] ( 121 ), 45 [799.9] ( 125 )
                49 [799.9] ( 129 ), 53 [800.7] ( 133 ), 57 [799.9] ( 137 )
                61 [799.9] ( 141 ), 65 [799.9] ( 145 ), 69 [799.9] ( 149 )
                73 [807.0] ( 153 ), 77 [799.9] ( 157 )
        2:       2 [800.2] ( 82 ),  6 [811.5] ( 86 ), 10 [799.9] ( 90 )
                14 [799.9] ( 94 ), 18 [799.9] ( 98 ), 22 [1098.8] ( 102 )
                26 [799.9] ( 106 ), 30 [799.9] ( 110 ), 34 [800.1] ( 114 )
                38 [800.1] ( 118 ), 42 [799.9] ( 122 ), 46 [800.1] ( 126 )
                50 [799.9] ( 130 ), 54 [799.9] ( 134 ), 58 [799.9] ( 138 )
                62 [799.9] ( 142 ), 66 [800.2] ( 146 ), 70 [800.1] ( 150 )
                74 [898.5] ( 154 ), 78 [799.9] ( 158 )
        3:       3 [800.2] ( 83 ),  7 [844.4] ( 87 ), 11 [799.9] ( 91 )
                15 [800.1] ( 95 ), 19 [800.1] ( 99 ), 23 [799.8] ( 103 )
                27 [799.9] ( 107 ), 31 [800.1] ( 111 ), 35 [800.1] ( 115 )
                39 [799.9] ( 119 ), 43 [800.1] ( 123 ), 47 [799.9] ( 127 )
                51 [800.1] ( 131 ), 55 [799.9] ( 135 ), 59 [799.9] ( 139 )
                63 [799.9] ( 143 ), 67 [800.1] ( 147 ), 71 [799.9] ( 151 )
                75 [800.1] ( 155 ), 79 [799.9] ( 159 )
        
System load averages (1min, 5min, 15min) : 0.7 %, 0.8 %, 0.8 %
Hyperthreading is enabled
HPC is enabled


Simulating `./resources/smic018/simResult/test_diffamp1_ac2.scs' on icetserver01 at 12:30:33 PM, Fri Feb 7, 2025 (process id: 217680).
Current working directory: /data/icdesign/ams/ip_migration/users/leiyuan/ipmigration
Environment variable:
    SPECTRE_DEFAULTS=-E -f psfbin
Command line:
    /opt/icdesign/CAD/cadence/SPECTRE231/tools/bin/spectre -64  \
        ./resources/smic018/simResult/test_diffamp1_ac2.scs +escchars  \
        =log ./resources/smic018/simResult/psf/outac2_spectre.out  \
        -format psfascii -raw ./resources/smic018/simResult/psf  \
        ++aps=moderate +mt=32 +lqtimeout 900 -maxw 5 -maxn 5 +logstatus

Licensing Information:
[12:30:33.287586] Configured Lic search path (22.01-s002): 5280@10.6.64.182:27001@10.6.126.11

Licensing Information:
[12:30:33.213618] Periodic Lic check successful

Loading /opt/icdesign/CAD/cadence/SPECTRE231/tools.lnx86/cmi/lib/64bit/5.0/libinfineon_sh.so ...
Loading /opt/icdesign/CAD/cadence/SPECTRE231/tools.lnx86/cmi/lib/64bit/5.0/libphilips_sh.so ...
Loading /opt/icdesign/CAD/cadence/SPECTRE231/tools.lnx86/cmi/lib/64bit/5.0/libsparam_sh.so ...
Loading /opt/icdesign/CAD/cadence/SPECTRE231/tools.lnx86/cmi/lib/64bit/5.0/libstmodels_sh.so ...
Reading file:  /data/icdesign/ams/ip_migration/users/leiyuan/ipmigration/resources/smic018/simResult/test_diffamp1_ac2.scs
Reading file:  /opt/icdesign/CAD/cadence/SPECTRE231/tools.lnx86/spectre/etc/configs/spectre.cfg
Reading file:  /usr/include/stdc-predef.h
Reading file:  /data/icdesign/ams/ip_migration/users/leiyuan/ipmigration/resources/smic018/models/spectre/ms018_v1p7_spe.lib
Reading file:  /data/icdesign/ams/ip_migration/users/leiyuan/ipmigration/resources/smic018/models/spectre/ms018_v1p7_spe.mdl
Reading file:  /home/shunqidai/Sizing/SizingDemoLinuxSpectre_integer_stdcell/smic018/ckt_netlist/twoStageOpamp2.scs
Time for NDB Parsing: CPU = 255.196 ms, elapsed = 778.271 ms.
Time accumulated: CPU = 460.935 ms, elapsed = 778.277 ms.
Peak resident memory used = 110 Mbytes.

Time for Elaboration: CPU = 38.718 ms, elapsed = 38.8842 ms.
Time accumulated: CPU = 499.97 ms, elapsed = 817.48 ms.
Peak resident memory used = 116 Mbytes.


Notice from spectre during hierarchy flattening.
    The value 'psf' specified for the 'checklimitdest' option will no longer be supported in future releases. Use 'spectre -h' to see other recommended values for the 'checklimitdest' option.


Time for EDB Visiting: CPU = 1.668 ms, elapsed = 2.46906 ms.
Time accumulated: CPU = 501.858 ms, elapsed = 820.168 ms.
Peak resident memory used = 117 Mbytes.


Notice from spectre during initial setup.
    Multithreading is disabled due to the size of the design being too small.


Global user options:
            vabstol = 1e-06
            iabstol = 1e-12
               temp = 27
               gmin = 1e-12
             rforce = 1
           maxnotes = 5
           maxwarns = 5
             digits = 5
               cols = 80
             pivrel = 0.001
           sensfile = ../psf/sens.output
     checklimitdest = psf
               save = allpub
     subcktprobelvl = 2
             reltol = 0.001
               tnom = 27
             scalem = 1
              scale = 1e-06

Scoped user options:

Circuit inventory:
              nodes 10
            bsim3v3 8     
          capacitor 2     
            isource 1     
           resistor 1     
            vsource 4     

Analysis and control statement inventory:
                 ac 1     

Output statements:
             .probe 0     
           .measure 0     
               save 0     


Notice from spectre during initial setup.
    Fast APS enabled.

Time for parsing: CPU = 7.49 ms, elapsed = 9.81402 ms.
Time accumulated: CPU = 509.551 ms, elapsed = 830.184 ms.
Peak resident memory used = 119 Mbytes.

~~~~~~~~~~~~~~~~~~~~~~
Pre-Simulation Summary
~~~~~~~~~~~~~~~~~~~~~~
   -   (Fast APS) Multi-threading. The recommended number of threads is 1, consider adding +mt=1 on command line.
~~~~~~~~~~~~~~~~~~~~~~

*************************************************
AC Analysis `outac2': freq = (100 mHz -> 100 GHz)
*************************************************
Trying `homotopy = gmin'.
DC simulation time: CPU = 6.798 ms, elapsed = 6.814 ms.

Opening the PSFASCII file ./resources/smic018/simResult/psf/outac2.ac ...
    outac2: freq = 199.5 mHz    (2.5 %), step = 41.04 mHz    (833 m%)
    outac2: freq = 251.2 mHz   (3.33 %), step = 51.66 mHz    (833 m%)
    outac2: freq = 316.2 mHz   (4.17 %), step = 65.04 mHz    (833 m%)
    outac2: freq = 398.1 mHz      (5 %), step = 81.88 mHz    (833 m%)
    outac2: freq = 501.2 mHz   (5.83 %), step = 103.1 mHz    (833 m%)
    outac2: freq = 631 mHz     (6.67 %), step = 129.8 mHz    (833 m%)
    outac2: freq = 794.3 mHz    (7.5 %), step = 163.4 mHz    (833 m%)
    outac2: freq = 1 Hz        (8.33 %), step = 205.7 mHz    (833 m%)
    outac2: freq = 1.259 Hz    (9.17 %), step = 258.9 mHz    (833 m%)
    outac2: freq = 1.585 Hz      (10 %), step = 326 mHz      (833 m%)
    outac2: freq = 1.995 Hz    (10.8 %), step = 410.4 mHz    (833 m%)
    outac2: freq = 2.512 Hz    (11.7 %), step = 516.6 mHz    (833 m%)
    outac2: freq = 3.162 Hz    (12.5 %), step = 650.4 mHz    (833 m%)
    outac2: freq = 3.981 Hz    (13.3 %), step = 818.8 mHz    (833 m%)
    outac2: freq = 5.012 Hz    (14.2 %), step = 1.031 Hz     (833 m%)
    outac2: freq = 6.31 Hz       (15 %), step = 1.298 Hz     (833 m%)
    outac2: freq = 7.943 Hz    (15.8 %), step = 1.634 Hz     (833 m%)
    outac2: freq = 10 Hz       (16.7 %), step = 2.057 Hz     (833 m%)
    outac2: freq = 12.59 Hz    (17.5 %), step = 2.589 Hz     (833 m%)
    outac2: freq = 15.85 Hz    (18.3 %), step = 3.26 Hz      (833 m%)
    outac2: freq = 19.95 Hz    (19.2 %), step = 4.104 Hz     (833 m%)
    outac2: freq = 25.12 Hz      (20 %), step = 5.166 Hz     (833 m%)
    outac2: freq = 31.62 Hz    (20.8 %), step = 6.504 Hz     (833 m%)
    outac2: freq = 39.81 Hz    (21.7 %), step = 8.188 Hz     (833 m%)
    outac2: freq = 50.12 Hz    (22.5 %), step = 10.31 Hz     (833 m%)
    outac2: freq = 63.1 Hz     (23.3 %), step = 12.98 Hz     (833 m%)
    outac2: freq = 79.43 Hz    (24.2 %), step = 16.34 Hz     (833 m%)
    outac2: freq = 100 Hz        (25 %), step = 20.57 Hz     (833 m%)
    outac2: freq = 125.9 Hz    (25.8 %), step = 25.89 Hz     (833 m%)
    outac2: freq = 158.5 Hz    (26.7 %), step = 32.6 Hz      (833 m%)
    outac2: freq = 199.5 Hz    (27.5 %), step = 41.04 Hz     (833 m%)
    outac2: freq = 251.2 Hz    (28.3 %), step = 51.66 Hz     (833 m%)
    outac2: freq = 316.2 Hz    (29.2 %), step = 65.04 Hz     (833 m%)
    outac2: freq = 398.1 Hz      (30 %), step = 81.88 Hz     (833 m%)
    outac2: freq = 501.2 Hz    (30.8 %), step = 103.1 Hz     (833 m%)
    outac2: freq = 631 Hz      (31.7 %), step = 129.8 Hz     (833 m%)
    outac2: freq = 794.3 Hz    (32.5 %), step = 163.4 Hz     (833 m%)
    outac2: freq = 1 kHz       (33.3 %), step = 205.7 Hz     (833 m%)
    outac2: freq = 1.259 kHz   (34.2 %), step = 258.9 Hz     (833 m%)
    outac2: freq = 1.585 kHz     (35 %), step = 326 Hz       (833 m%)
    outac2: freq = 1.995 kHz   (35.8 %), step = 410.4 Hz     (833 m%)
    outac2: freq = 2.512 kHz   (36.7 %), step = 516.6 Hz     (833 m%)
    outac2: freq = 3.162 kHz   (37.5 %), step = 650.4 Hz     (833 m%)
    outac2: freq = 3.981 kHz   (38.3 %), step = 818.8 Hz     (833 m%)
    outac2: freq = 5.012 kHz   (39.2 %), step = 1.031 kHz    (833 m%)
    outac2: freq = 6.31 kHz      (40 %), step = 1.298 kHz    (833 m%)
    outac2: freq = 7.943 kHz   (40.8 %), step = 1.634 kHz    (833 m%)
    outac2: freq = 10 kHz      (41.7 %), step = 2.057 kHz    (833 m%)
    outac2: freq = 12.59 kHz   (42.5 %), step = 2.589 kHz    (833 m%)
    outac2: freq = 15.85 kHz   (43.3 %), step = 3.26 kHz     (833 m%)
    outac2: freq = 19.95 kHz   (44.2 %), step = 4.104 kHz    (833 m%)
    outac2: freq = 25.12 kHz     (45 %), step = 5.166 kHz    (833 m%)
    outac2: freq = 31.62 kHz   (45.8 %), step = 6.504 kHz    (833 m%)
    outac2: freq = 39.81 kHz   (46.7 %), step = 8.188 kHz    (833 m%)
    outac2: freq = 50.12 kHz   (47.5 %), step = 10.31 kHz    (833 m%)
    outac2: freq = 63.1 kHz    (48.3 %), step = 12.98 kHz    (833 m%)
    outac2: freq = 79.43 kHz   (49.2 %), step = 16.34 kHz    (833 m%)
    outac2: freq = 100 kHz       (50 %), step = 20.57 kHz    (833 m%)
    outac2: freq = 125.9 kHz   (50.8 %), step = 25.89 kHz    (833 m%)
    outac2: freq = 158.5 kHz   (51.7 %), step = 32.6 kHz     (833 m%)
    outac2: freq = 199.5 kHz   (52.5 %), step = 41.04 kHz    (833 m%)
    outac2: freq = 251.2 kHz   (53.3 %), step = 51.66 kHz    (833 m%)
    outac2: freq = 316.2 kHz   (54.2 %), step = 65.04 kHz    (833 m%)
    outac2: freq = 398.1 kHz     (55 %), step = 81.88 kHz    (833 m%)
    outac2: freq = 501.2 kHz   (55.8 %), step = 103.1 kHz    (833 m%)
    outac2: freq = 631 kHz     (56.7 %), step = 129.8 kHz    (833 m%)
    outac2: freq = 794.3 kHz   (57.5 %), step = 163.4 kHz    (833 m%)
    outac2: freq = 1 MHz       (58.3 %), step = 205.7 kHz    (833 m%)
    outac2: freq = 1.259 MHz   (59.2 %), step = 258.9 kHz    (833 m%)
    outac2: freq = 1.585 MHz     (60 %), step = 326 kHz      (833 m%)
    outac2: freq = 1.995 MHz   (60.8 %), step = 410.4 kHz    (833 m%)
    outac2: freq = 2.512 MHz   (61.7 %), step = 516.6 kHz    (833 m%)
    outac2: freq = 3.162 MHz   (62.5 %), step = 650.4 kHz    (833 m%)
    outac2: freq = 3.981 MHz   (63.3 %), step = 818.8 kHz    (833 m%)
    outac2: freq = 5.012 MHz   (64.2 %), step = 1.031 MHz    (833 m%)
    outac2: freq = 6.31 MHz      (65 %), step = 1.298 MHz    (833 m%)
    outac2: freq = 7.943 MHz   (65.8 %), step = 1.634 MHz    (833 m%)
    outac2: freq = 10 MHz      (66.7 %), step = 2.057 MHz    (833 m%)
    outac2: freq = 12.59 MHz   (67.5 %), step = 2.589 MHz    (833 m%)
    outac2: freq = 15.85 MHz   (68.3 %), step = 3.26 MHz     (833 m%)
    outac2: freq = 19.95 MHz   (69.2 %), step = 4.104 MHz    (833 m%)
    outac2: freq = 25.12 MHz     (70 %), step = 5.166 MHz    (833 m%)
    outac2: freq = 31.62 MHz   (70.8 %), step = 6.504 MHz    (833 m%)
    outac2: freq = 39.81 MHz   (71.7 %), step = 8.188 MHz    (833 m%)
    outac2: freq = 50.12 MHz   (72.5 %), step = 10.31 MHz    (833 m%)
    outac2: freq = 63.1 MHz    (73.3 %), step = 12.98 MHz    (833 m%)
    outac2: freq = 79.43 MHz   (74.2 %), step = 16.34 MHz    (833 m%)
    outac2: freq = 100 MHz       (75 %), step = 20.57 MHz    (833 m%)
    outac2: freq = 125.9 MHz   (75.8 %), step = 25.89 MHz    (833 m%)
    outac2: freq = 158.5 MHz   (76.7 %), step = 32.6 MHz     (833 m%)
    outac2: freq = 199.5 MHz   (77.5 %), step = 41.04 MHz    (833 m%)
    outac2: freq = 251.2 MHz   (78.3 %), step = 51.66 MHz    (833 m%)
    outac2: freq = 316.2 MHz   (79.2 %), step = 65.04 MHz    (833 m%)
    outac2: freq = 398.1 MHz     (80 %), step = 81.88 MHz    (833 m%)
    outac2: freq = 501.2 MHz   (80.8 %), step = 103.1 MHz    (833 m%)
    outac2: freq = 631 MHz     (81.7 %), step = 129.8 MHz    (833 m%)
    outac2: freq = 794.3 MHz   (82.5 %), step = 163.4 MHz    (833 m%)
    outac2: freq = 1 GHz       (83.3 %), step = 205.7 MHz    (833 m%)
    outac2: freq = 1.259 GHz   (84.2 %), step = 258.9 MHz    (833 m%)
    outac2: freq = 1.585 GHz     (85 %), step = 326 MHz      (833 m%)
    outac2: freq = 1.995 GHz   (85.8 %), step = 410.4 MHz    (833 m%)
    outac2: freq = 2.512 GHz   (86.7 %), step = 516.6 MHz    (833 m%)
    outac2: freq = 3.162 GHz   (87.5 %), step = 650.4 MHz    (833 m%)
    outac2: freq = 3.981 GHz   (88.3 %), step = 818.8 MHz    (833 m%)
    outac2: freq = 5.012 GHz   (89.2 %), step = 1.031 GHz    (833 m%)
    outac2: freq = 6.31 GHz      (90 %), step = 1.298 GHz    (833 m%)
    outac2: freq = 7.943 GHz   (90.8 %), step = 1.634 GHz    (833 m%)
    outac2: freq = 10 GHz      (91.7 %), step = 2.057 GHz    (833 m%)
    outac2: freq = 12.59 GHz   (92.5 %), step = 2.589 GHz    (833 m%)
    outac2: freq = 15.85 GHz   (93.3 %), step = 3.26 GHz     (833 m%)
    outac2: freq = 19.95 GHz   (94.2 %), step = 4.104 GHz    (833 m%)
    outac2: freq = 25.12 GHz     (95 %), step = 5.166 GHz    (833 m%)
    outac2: freq = 31.62 GHz   (95.8 %), step = 6.504 GHz    (833 m%)
    outac2: freq = 39.81 GHz   (96.7 %), step = 8.188 GHz    (833 m%)
    outac2: freq = 50.12 GHz   (97.5 %), step = 10.31 GHz    (833 m%)
    outac2: freq = 63.1 GHz    (98.3 %), step = 12.98 GHz    (833 m%)
    outac2: freq = 79.43 GHz   (99.2 %), step = 16.34 GHz    (833 m%)
    outac2: freq = 100 GHz      (100 %), step = 20.57 GHz    (833 m%)
Accumulated DC solution time =            6.90699 ms.
Intrinsic ac analysis time =              41.1789 ms.
Total time required for ac analysis `outac2': CPU = 35.794 ms, elapsed = 48.193 ms, util. = 74.3%.
Time accumulated: CPU = 553.763 ms, elapsed = 887.819 ms.
Peak resident memory used = 121 Mbytes.

Licensing Information:
Lic Summary:
[12:30:34.128835] Cdslmd servers:5280@10.6.64.182:27001@10.6.126.11
[12:30:34.128897] Feature usage summary:
[12:30:34.128899] Virtuoso_Multi_mode_Simulation


Aggregate audit (12:30:34 PM, Fri Feb 7, 2025):
Time used: CPU = 556 ms, elapsed = 891 ms, util. = 62.4%.
Time spent in licensing: elapsed = 48 ms, percentage of total = 5.38%.
Peak memory used = 122 Mbytes.
Simulation started at: 12:30:33 PM, Fri Feb 7, 2025, ended at: 12:30:34 PM, Fri Feb 7, 2025, with elapsed time (wall clock): 891 ms.
spectre completes with 0 errors, 0 warnings, and 4 notices.
