
Spectre (R) Circuit Simulator
Version 23.1.0.063 64bit -- 10 Jun 2023
Copyright (C) 1989-2023 Cadence Design Systems, Inc. All rights reserved worldwide. Cadence and Spectre are registered trademarks of Cadence Design Systems, Inc. All others are the property of their respective holders.

Includes RSA BSAFE(R) Cryptographic or Security Protocol Software from RSA Security, Inc.

User: leiyuan   Host: icetserver01   HostID: 7F0100   PID: 24025
Memory  available: 385.7429 GB  physical: 404.9105 GB
Linux   : CentOS Linux release 7 (Core)
CPU Type: Intel(R) Xeon(R) Gold 6230 CPU @ 2.10GHz
        Socket: Processors [Frequency] (Hyperthreaded Processor)
        0:       0 [799.9] ( 80 ),  4 [799.9] ( 84 ),  8 [896.1] ( 88 )
                12 [799.9] ( 92 ), 16 [799.9] ( 96 ), 20 [800.1] ( 100 )
                24 [800.1] ( 104 ), 28 [799.9] ( 108 ), 32 [832.1] ( 112 )
                36 [1125.0] ( 116 ), 40 [1410.7] ( 120 ), 44 [892.7] ( 124 )
                48 [800.1] ( 128 ), 52 [821.0] ( 132 ), 56 [823.0] ( 136 )
                60 [799.9] ( 140 ), 64 [816.5] ( 144 ), 68 [800.1] ( 148 )
                72 [799.9] ( 152 ), 76 [799.9] ( 156 )
        1:       1 [800.1] ( 81 ),  5 [1661.5] ( 85 ),  9 [799.9] ( 89 )
                13 [893.9] ( 93 ), 17 [813.1] ( 97 ), 21 [800.1] ( 101 )
                25 [808.6] ( 105 ), 29 [799.9] ( 109 ), 33 [800.1] ( 113 )
                37 [799.9] ( 117 ), 41 [802.4] ( 121 ), 45 [854.4] ( 125 )
                49 [896.6] ( 129 ), 53 [880.7] ( 133 ), 57 [900.0] ( 137 )
                61 [841.5] ( 141 ), 65 [799.9] ( 145 ), 69 [799.9] ( 149 )
                73 [799.9] ( 153 ), 77 [799.9] ( 157 )
        2:       2 [3725.1] ( 82 ),  6 [800.1] ( 86 ), 10 [878.0] ( 90 )
                14 [799.9] ( 94 ), 18 [799.9] ( 98 ), 22 [799.9] ( 102 )
                26 [836.3] ( 106 ), 30 [799.9] ( 110 ), 34 [799.9] ( 114 )
                38 [807.2] ( 118 ), 42 [799.9] ( 122 ), 46 [799.9] ( 126 )
                50 [799.9] ( 130 ), 54 [799.9] ( 134 ), 58 [800.2] ( 138 )
                62 [799.9] ( 142 ), 66 [799.9] ( 146 ), 70 [799.9] ( 150 )
                74 [800.1] ( 154 ), 78 [808.3] ( 158 )
        3:       3 [817.4] ( 83 ),  7 [2559.4] ( 87 ), 11 [821.1] ( 91 )
                15 [799.9] ( 95 ), 19 [799.9] ( 99 ), 23 [879.4] ( 103 )
                27 [800.1] ( 107 ), 31 [829.9] ( 111 ), 35 [799.9] ( 115 )
                39 [807.4] ( 119 ), 43 [800.1] ( 123 ), 47 [800.1] ( 127 )
                51 [800.1] ( 131 ), 55 [799.9] ( 135 ), 59 [800.1] ( 139 )
                63 [800.1] ( 143 ), 67 [799.9] ( 147 ), 71 [799.9] ( 151 )
                75 [800.6] ( 155 ), 79 [799.9] ( 159 )
        
System load averages (1min, 5min, 15min) : 1.1 %, 1.1 %, 0.9 %
Hyperthreading is enabled
HPC is enabled


Simulating `./resources/smic018/simResult/test_diffamp1_ac1.scs' on icetserver01 at 3:06:48 PM, Thur Feb 6, 2025 (process id: 24025).
Current working directory: /data/icdesign/ams/ip_migration/users/leiyuan/ipmigration
Environment variable:
    SPECTRE_DEFAULTS=-E -f psfbin
Command line:
    /opt/icdesign/CAD/cadence/SPECTRE231/tools/bin/spectre -64  \
        ./resources/smic018/simResult/test_diffamp1_ac1.scs +escchars  \
        =log ./resources/smic018/simResult/psf/outac1_spectre.out  \
        -format psfascii -raw ./resources/smic018/simResult/psf  \
        ++aps=moderate +mt=32 +lqtimeout 900 -maxw 5 -maxn 5 +logstatus

Licensing Information:
[15:06:48.287682] Configured Lic search path (22.01-s002): 5280@10.6.64.182:27001@10.6.126.11

Licensing Information:
[15:06:49.004465] Periodic Lic check successful

Loading /opt/icdesign/CAD/cadence/SPECTRE231/tools.lnx86/cmi/lib/64bit/5.0/libinfineon_sh.so ...
Loading /opt/icdesign/CAD/cadence/SPECTRE231/tools.lnx86/cmi/lib/64bit/5.0/libphilips_sh.so ...
Loading /opt/icdesign/CAD/cadence/SPECTRE231/tools.lnx86/cmi/lib/64bit/5.0/libsparam_sh.so ...
Loading /opt/icdesign/CAD/cadence/SPECTRE231/tools.lnx86/cmi/lib/64bit/5.0/libstmodels_sh.so ...
Reading file:  /data/icdesign/ams/ip_migration/users/leiyuan/ipmigration/resources/smic018/simResult/test_diffamp1_ac1.scs
Reading file:  /opt/icdesign/CAD/cadence/SPECTRE231/tools.lnx86/spectre/etc/configs/spectre.cfg
Reading file:  /usr/include/stdc-predef.h
Reading file:  /data/icdesign/ams/ip_migration/users/leiyuan/ipmigration/resources/smic018/models/spectre/ms018_v1p7_spe.lib
Reading file:  /data/icdesign/ams/ip_migration/users/leiyuan/ipmigration/resources/smic018/models/spectre/ms018_v1p7_spe.mdl
Reading file:  /home/shunqidai/Sizing/SizingDemoLinuxSpectre_integer_stdcell/smic018/ckt_netlist/twoStageOpamp2.scs
Time for NDB Parsing: CPU = 265.792 ms, elapsed = 768.911 ms.
Time accumulated: CPU = 453.801 ms, elapsed = 768.916 ms.
Peak resident memory used = 106 Mbytes.

Time for Elaboration: CPU = 39.955 ms, elapsed = 40.1239 ms.
Time accumulated: CPU = 494.051 ms, elapsed = 809.345 ms.
Peak resident memory used = 112 Mbytes.


Notice from spectre during hierarchy flattening.
    The value 'psf' specified for the 'checklimitdest' option will no longer be supported in future releases. Use 'spectre -h' to see other recommended values for the 'checklimitdest' option.


Time for EDB Visiting: CPU = 1.732 ms, elapsed = 2.33483 ms.
Time accumulated: CPU = 496.008 ms, elapsed = 811.905 ms.
Peak resident memory used = 113 Mbytes.


Notice from spectre during initial setup.
    Multithreading is disabled due to the size of the design being too small.


Global user options:
            vabstol = 1e-06
            iabstol = 1e-12
               temp = 27
               gmin = 1e-12
             rforce = 1
           maxnotes = 5
           maxwarns = 5
             digits = 5
               cols = 80
             pivrel = 0.001
           sensfile = ../psf/sens.output
     checklimitdest = psf
               save = allpub
     subcktprobelvl = 2
             reltol = 0.001
               tnom = 27
             scalem = 1
              scale = 1e-06

Scoped user options:

Circuit inventory:
              nodes 9
            bsim3v3 8     
          capacitor 2     
            isource 1     
           resistor 1     
            vsource 3     

Analysis and control statement inventory:
                 ac 1     

Output statements:
             .probe 0     
           .measure 0     
               save 0     


Notice from spectre during initial setup.
    Fast APS enabled.

Time for parsing: CPU = 7.669 ms, elapsed = 10.335 ms.
Time accumulated: CPU = 503.876 ms, elapsed = 822.439 ms.
Peak resident memory used = 115 Mbytes.

~~~~~~~~~~~~~~~~~~~~~~
Pre-Simulation Summary
~~~~~~~~~~~~~~~~~~~~~~
   -   (Fast APS) Multi-threading. The recommended number of threads is 1, consider adding +mt=1 on command line.
~~~~~~~~~~~~~~~~~~~~~~

***********************************************
AC Analysis `outac1': freq = (100 mHz -> 1 GHz)
***********************************************
DC simulation time: CPU = 1.691 ms, elapsed = 1.69492 ms.

Opening the PSFASCII file ./resources/smic018/simResult/psf/outac1.ac ...
    outac1: freq = 199.5 mHz      (3 %), step = 41.04 mHz       (1 %)
    outac1: freq = 251.2 mHz      (4 %), step = 51.66 mHz       (1 %)
    outac1: freq = 316.2 mHz      (5 %), step = 65.04 mHz       (1 %)
    outac1: freq = 398.1 mHz      (6 %), step = 81.88 mHz       (1 %)
    outac1: freq = 501.2 mHz      (7 %), step = 103.1 mHz       (1 %)
    outac1: freq = 631 mHz        (8 %), step = 129.8 mHz       (1 %)
    outac1: freq = 794.3 mHz      (9 %), step = 163.4 mHz       (1 %)
    outac1: freq = 1 Hz          (10 %), step = 205.7 mHz       (1 %)
    outac1: freq = 1.259 Hz      (11 %), step = 258.9 mHz       (1 %)
    outac1: freq = 1.585 Hz      (12 %), step = 326 mHz         (1 %)
    outac1: freq = 1.995 Hz      (13 %), step = 410.4 mHz       (1 %)
    outac1: freq = 2.512 Hz      (14 %), step = 516.6 mHz       (1 %)
    outac1: freq = 3.162 Hz      (15 %), step = 650.4 mHz       (1 %)
    outac1: freq = 3.981 Hz      (16 %), step = 818.8 mHz       (1 %)
    outac1: freq = 5.012 Hz      (17 %), step = 1.031 Hz        (1 %)
    outac1: freq = 6.31 Hz       (18 %), step = 1.298 Hz        (1 %)
    outac1: freq = 7.943 Hz      (19 %), step = 1.634 Hz        (1 %)
    outac1: freq = 10 Hz         (20 %), step = 2.057 Hz        (1 %)
    outac1: freq = 12.59 Hz      (21 %), step = 2.589 Hz        (1 %)
    outac1: freq = 15.85 Hz      (22 %), step = 3.26 Hz         (1 %)
    outac1: freq = 19.95 Hz      (23 %), step = 4.104 Hz        (1 %)
    outac1: freq = 25.12 Hz      (24 %), step = 5.166 Hz        (1 %)
    outac1: freq = 31.62 Hz      (25 %), step = 6.504 Hz        (1 %)
    outac1: freq = 39.81 Hz      (26 %), step = 8.188 Hz        (1 %)
    outac1: freq = 50.12 Hz      (27 %), step = 10.31 Hz        (1 %)
    outac1: freq = 63.1 Hz       (28 %), step = 12.98 Hz        (1 %)
    outac1: freq = 79.43 Hz      (29 %), step = 16.34 Hz        (1 %)
    outac1: freq = 100 Hz        (30 %), step = 20.57 Hz        (1 %)
    outac1: freq = 125.9 Hz      (31 %), step = 25.89 Hz        (1 %)
    outac1: freq = 158.5 Hz      (32 %), step = 32.6 Hz         (1 %)
    outac1: freq = 199.5 Hz      (33 %), step = 41.04 Hz        (1 %)
    outac1: freq = 251.2 Hz      (34 %), step = 51.66 Hz        (1 %)
    outac1: freq = 316.2 Hz      (35 %), step = 65.04 Hz        (1 %)
    outac1: freq = 398.1 Hz      (36 %), step = 81.88 Hz        (1 %)
    outac1: freq = 501.2 Hz      (37 %), step = 103.1 Hz        (1 %)
    outac1: freq = 631 Hz        (38 %), step = 129.8 Hz        (1 %)
    outac1: freq = 794.3 Hz      (39 %), step = 163.4 Hz        (1 %)
    outac1: freq = 1 kHz         (40 %), step = 205.7 Hz        (1 %)
    outac1: freq = 1.259 kHz     (41 %), step = 258.9 Hz        (1 %)
    outac1: freq = 1.585 kHz     (42 %), step = 326 Hz          (1 %)
    outac1: freq = 1.995 kHz     (43 %), step = 410.4 Hz        (1 %)
    outac1: freq = 2.512 kHz     (44 %), step = 516.6 Hz        (1 %)
    outac1: freq = 3.162 kHz     (45 %), step = 650.4 Hz        (1 %)
    outac1: freq = 3.981 kHz     (46 %), step = 818.8 Hz        (1 %)
    outac1: freq = 5.012 kHz     (47 %), step = 1.031 kHz       (1 %)
    outac1: freq = 6.31 kHz      (48 %), step = 1.298 kHz       (1 %)
    outac1: freq = 7.943 kHz     (49 %), step = 1.634 kHz       (1 %)
    outac1: freq = 10 kHz        (50 %), step = 2.057 kHz       (1 %)
    outac1: freq = 12.59 kHz     (51 %), step = 2.589 kHz       (1 %)
    outac1: freq = 15.85 kHz     (52 %), step = 3.26 kHz        (1 %)
    outac1: freq = 19.95 kHz     (53 %), step = 4.104 kHz       (1 %)
    outac1: freq = 25.12 kHz     (54 %), step = 5.166 kHz       (1 %)
    outac1: freq = 31.62 kHz     (55 %), step = 6.504 kHz       (1 %)
    outac1: freq = 39.81 kHz     (56 %), step = 8.188 kHz       (1 %)
    outac1: freq = 50.12 kHz     (57 %), step = 10.31 kHz       (1 %)
    outac1: freq = 63.1 kHz      (58 %), step = 12.98 kHz       (1 %)
    outac1: freq = 79.43 kHz     (59 %), step = 16.34 kHz       (1 %)
    outac1: freq = 100 kHz       (60 %), step = 20.57 kHz       (1 %)
    outac1: freq = 125.9 kHz     (61 %), step = 25.89 kHz       (1 %)
    outac1: freq = 158.5 kHz     (62 %), step = 32.6 kHz        (1 %)
    outac1: freq = 199.5 kHz     (63 %), step = 41.04 kHz       (1 %)
    outac1: freq = 251.2 kHz     (64 %), step = 51.66 kHz       (1 %)
    outac1: freq = 316.2 kHz     (65 %), step = 65.04 kHz       (1 %)
    outac1: freq = 398.1 kHz     (66 %), step = 81.88 kHz       (1 %)
    outac1: freq = 501.2 kHz     (67 %), step = 103.1 kHz       (1 %)
    outac1: freq = 631 kHz       (68 %), step = 129.8 kHz       (1 %)
    outac1: freq = 794.3 kHz     (69 %), step = 163.4 kHz       (1 %)
    outac1: freq = 1 MHz         (70 %), step = 205.7 kHz       (1 %)
    outac1: freq = 1.259 MHz     (71 %), step = 258.9 kHz       (1 %)
    outac1: freq = 1.585 MHz     (72 %), step = 326 kHz         (1 %)
    outac1: freq = 1.995 MHz     (73 %), step = 410.4 kHz       (1 %)
    outac1: freq = 2.512 MHz     (74 %), step = 516.6 kHz       (1 %)
    outac1: freq = 3.162 MHz     (75 %), step = 650.4 kHz       (1 %)
    outac1: freq = 3.981 MHz     (76 %), step = 818.8 kHz       (1 %)
    outac1: freq = 5.012 MHz     (77 %), step = 1.031 MHz       (1 %)
    outac1: freq = 6.31 MHz      (78 %), step = 1.298 MHz       (1 %)
    outac1: freq = 7.943 MHz     (79 %), step = 1.634 MHz       (1 %)
    outac1: freq = 10 MHz        (80 %), step = 2.057 MHz       (1 %)
    outac1: freq = 12.59 MHz     (81 %), step = 2.589 MHz       (1 %)
    outac1: freq = 15.85 MHz     (82 %), step = 3.26 MHz        (1 %)
    outac1: freq = 19.95 MHz     (83 %), step = 4.104 MHz       (1 %)
    outac1: freq = 25.12 MHz     (84 %), step = 5.166 MHz       (1 %)
    outac1: freq = 31.62 MHz     (85 %), step = 6.504 MHz       (1 %)
    outac1: freq = 39.81 MHz     (86 %), step = 8.188 MHz       (1 %)
    outac1: freq = 50.12 MHz     (87 %), step = 10.31 MHz       (1 %)
    outac1: freq = 63.1 MHz      (88 %), step = 12.98 MHz       (1 %)
    outac1: freq = 79.43 MHz     (89 %), step = 16.34 MHz       (1 %)
    outac1: freq = 100 MHz       (90 %), step = 20.57 MHz       (1 %)
    outac1: freq = 125.9 MHz     (91 %), step = 25.89 MHz       (1 %)
    outac1: freq = 158.5 MHz     (92 %), step = 32.6 MHz        (1 %)
    outac1: freq = 199.5 MHz     (93 %), step = 41.04 MHz       (1 %)
    outac1: freq = 251.2 MHz     (94 %), step = 51.66 MHz       (1 %)
    outac1: freq = 316.2 MHz     (95 %), step = 65.04 MHz       (1 %)
    outac1: freq = 398.1 MHz     (96 %), step = 81.88 MHz       (1 %)
    outac1: freq = 501.2 MHz     (97 %), step = 103.1 MHz       (1 %)
    outac1: freq = 631 MHz       (98 %), step = 129.8 MHz       (1 %)
    outac1: freq = 794.3 MHz     (99 %), step = 163.4 MHz       (1 %)
    outac1: freq = 1 GHz        (100 %), step = 205.7 MHz       (1 %)
Accumulated DC solution time =            1.80984 ms.
Intrinsic ac analysis time =              32.1312 ms.
Total time required for ac analysis `outac1': CPU = 26.575 ms, elapsed = 34.44 ms, util. = 77.2%.
Time accumulated: CPU = 539.52 ms, elapsed = 867.086 ms.
Peak resident memory used = 118 Mbytes.

Licensing Information:
Lic Summary:
[15:06:49.386384] Cdslmd servers:5280@10.6.64.182:27001@10.6.126.11
[15:06:49.386450] Feature usage summary:
[15:06:49.386450] Virtuoso_Multi_mode_Simulation


Aggregate audit (3:06:49 PM, Thur Feb 6, 2025):
Time used: CPU = 542 ms, elapsed = 871 ms, util. = 62.3%.
Time spent in licensing: elapsed = 48.7 ms, percentage of total = 5.59%.
Peak memory used = 118 Mbytes.
Simulation started at: 3:06:48 PM, Thur Feb 6, 2025, ended at: 3:06:49 PM, Thur Feb 6, 2025, with elapsed time (wall clock): 871 ms.
spectre completes with 0 errors, 0 warnings, and 4 notices.
