
Spectre (R) Circuit Simulator
Version 23.1.0.063 64bit -- 10 Jun 2023
Copyright (C) 1989-2023 Cadence Design Systems, Inc. All rights reserved worldwide. Cadence and Spectre are registered trademarks of Cadence Design Systems, Inc. All others are the property of their respective holders.

Includes RSA BSAFE(R) Cryptographic or Security Protocol Software from RSA Security, Inc.

User: leiyuan   Host: icetserver01   HostID: 7F0100   PID: 217544
Memory  available: 384.5103 GB  physical: 404.9105 GB
Linux   : CentOS Linux release 7 (Core)
CPU Type: Intel(R) Xeon(R) Gold 6230 CPU @ 2.10GHz
        Socket: Processors [Frequency] (Hyperthreaded Processor)
        0:       0 [1118.1] ( 80 ),  4 [848.3] ( 84 ),  8 [1427.9] ( 88 )
                12 [1035.6] ( 92 ), 16 [855.2] ( 96 ), 20 [799.9] ( 100 )
                24 [799.9] ( 104 ), 28 [1122.3] ( 108 ), 32 [799.9] ( 112 )
                36 [1227.4] ( 116 ), 40 [1018.0] ( 120 ), 44 [1364.8] ( 124 )
                48 [799.9] ( 128 ), 52 [799.9] ( 132 ), 56 [1565.3] ( 136 )
                60 [800.1] ( 140 ), 64 [1071.3] ( 144 ), 68 [1330.8] ( 148 )
                72 [832.1] ( 152 ), 76 [800.1] ( 156 )
        1:       1 [843.6] ( 81 ),  5 [888.8] ( 85 ),  9 [803.3] ( 89 )
                13 [894.3] ( 93 ), 17 [801.7] ( 97 ), 21 [800.1] ( 101 )
                25 [800.1] ( 105 ), 29 [799.9] ( 109 ), 33 [829.5] ( 113 )
                37 [800.1] ( 117 ), 41 [830.8] ( 121 ), 45 [799.9] ( 125 )
                49 [799.9] ( 129 ), 53 [840.7] ( 133 ), 57 [799.9] ( 137 )
                61 [799.9] ( 141 ), 65 [799.9] ( 145 ), 69 [850.2] ( 149 )
                73 [800.1] ( 153 ), 77 [799.9] ( 157 )
        2:       2 [1496.9] ( 82 ),  6 [1024.9] ( 86 ), 10 [799.9] ( 90 )
                14 [799.9] ( 94 ), 18 [799.9] ( 98 ), 22 [1126.8] ( 102 )
                26 [799.9] ( 106 ), 30 [804.4] ( 110 ), 34 [799.9] ( 114 )
                38 [799.9] ( 118 ), 42 [799.9] ( 122 ), 46 [799.9] ( 126 )
                50 [799.9] ( 130 ), 54 [799.9] ( 134 ), 58 [799.9] ( 138 )
                62 [892.1] ( 142 ), 66 [800.3] ( 146 ), 70 [800.1] ( 150 )
                74 [976.0] ( 154 ), 78 [799.9] ( 158 )
        3:       3 [999.4] ( 83 ),  7 [807.8] ( 87 ), 11 [978.2] ( 91 )
                15 [800.3] ( 95 ), 19 [800.1] ( 99 ), 23 [799.9] ( 103 )
                27 [863.0] ( 107 ), 31 [799.9] ( 111 ), 35 [800.1] ( 115 )
                39 [799.9] ( 119 ), 43 [889.1] ( 123 ), 47 [800.1] ( 127 )
                51 [800.1] ( 131 ), 55 [800.1] ( 135 ), 59 [799.9] ( 139 )
                63 [799.9] ( 143 ), 67 [799.8] ( 147 ), 71 [799.9] ( 151 )
                75 [799.9] ( 155 ), 79 [799.9] ( 159 )
        
System load averages (1min, 5min, 15min) : 0.7 %, 0.8 %, 0.8 %
Hyperthreading is enabled
HPC is enabled


Simulating `./resources/smic018/simResult/test_diffamp1_ac1.scs' on icetserver01 at 12:30:28 PM, Fri Feb 7, 2025 (process id: 217544).
Current working directory: /data/icdesign/ams/ip_migration/users/leiyuan/ipmigration
Environment variable:
    SPECTRE_DEFAULTS=-E -f psfbin
Command line:
    /opt/icdesign/CAD/cadence/SPECTRE231/tools/bin/spectre -64  \
        ./resources/smic018/simResult/test_diffamp1_ac1.scs +escchars  \
        =log ./resources/smic018/simResult/psf/outac1_spectre.out  \
        -format psfascii -raw ./resources/smic018/simResult/psf  \
        ++aps=moderate +mt=32 +lqtimeout 900 -maxw 5 -maxn 5 +logstatus

Licensing Information:
[12:30:29.287626] Configured Lic search path (22.01-s002): 5280@10.6.64.182:27001@10.6.126.11

Licensing Information:
[12:30:29.359288] Periodic Lic check successful

Loading /opt/icdesign/CAD/cadence/SPECTRE231/tools.lnx86/cmi/lib/64bit/5.0/libinfineon_sh.so ...
Loading /opt/icdesign/CAD/cadence/SPECTRE231/tools.lnx86/cmi/lib/64bit/5.0/libphilips_sh.so ...
Loading /opt/icdesign/CAD/cadence/SPECTRE231/tools.lnx86/cmi/lib/64bit/5.0/libsparam_sh.so ...
Loading /opt/icdesign/CAD/cadence/SPECTRE231/tools.lnx86/cmi/lib/64bit/5.0/libstmodels_sh.so ...
Reading file:  /data/icdesign/ams/ip_migration/users/leiyuan/ipmigration/resources/smic018/simResult/test_diffamp1_ac1.scs
Reading file:  /opt/icdesign/CAD/cadence/SPECTRE231/tools.lnx86/spectre/etc/configs/spectre.cfg
Reading file:  /usr/include/stdc-predef.h
Reading file:  /data/icdesign/ams/ip_migration/users/leiyuan/ipmigration/resources/smic018/models/spectre/ms018_v1p7_spe.lib
Reading file:  /data/icdesign/ams/ip_migration/users/leiyuan/ipmigration/resources/smic018/models/spectre/ms018_v1p7_spe.mdl
Reading file:  /home/shunqidai/Sizing/SizingDemoLinuxSpectre_integer_stdcell/smic018/ckt_netlist/twoStageOpamp2.scs
Time for NDB Parsing: CPU = 229.811 ms, elapsed = 943.902 ms.
Time accumulated: CPU = 418.336 ms, elapsed = 943.907 ms.
Peak resident memory used = 104 Mbytes.

Time for Elaboration: CPU = 38.494 ms, elapsed = 38.6479 ms.
Time accumulated: CPU = 457.14 ms, elapsed = 982.866 ms.
Peak resident memory used = 110 Mbytes.


Notice from spectre during hierarchy flattening.
    The value 'psf' specified for the 'checklimitdest' option will no longer be supported in future releases. Use 'spectre -h' to see other recommended values for the 'checklimitdest' option.


Time for EDB Visiting: CPU = 1.699 ms, elapsed = 2.46406 ms.
Time accumulated: CPU = 459.052 ms, elapsed = 985.542 ms.
Peak resident memory used = 111 Mbytes.


Notice from spectre during initial setup.
    Multithreading is disabled due to the size of the design being too small.


Global user options:
            vabstol = 1e-06
            iabstol = 1e-12
               temp = 27
               gmin = 1e-12
             rforce = 1
           maxnotes = 5
           maxwarns = 5
             digits = 5
               cols = 80
             pivrel = 0.001
           sensfile = ../psf/sens.output
     checklimitdest = psf
               save = allpub
     subcktprobelvl = 2
             reltol = 0.001
               tnom = 27
             scalem = 1
              scale = 1e-06

Scoped user options:

Circuit inventory:
              nodes 9
            bsim3v3 8     
          capacitor 2     
            isource 1     
           resistor 1     
            vsource 3     

Analysis and control statement inventory:
                 ac 1     

Output statements:
             .probe 0     
           .measure 0     
               save 0     


Notice from spectre during initial setup.
    Fast APS enabled.

Time for parsing: CPU = 7.267 ms, elapsed = 9.89485 ms.
Time accumulated: CPU = 466.513 ms, elapsed = 995.631 ms.
Peak resident memory used = 113 Mbytes.

~~~~~~~~~~~~~~~~~~~~~~
Pre-Simulation Summary
~~~~~~~~~~~~~~~~~~~~~~
   -   (Fast APS) Multi-threading. The recommended number of threads is 1, consider adding +mt=1 on command line.
~~~~~~~~~~~~~~~~~~~~~~

***********************************************
AC Analysis `outac1': freq = (100 mHz -> 1 GHz)
***********************************************
DC simulation time: CPU = 1.666 ms, elapsed = 1.66988 ms.

Opening the PSFASCII file ./resources/smic018/simResult/psf/outac1.ac ...
    outac1: freq = 199.5 mHz      (3 %), step = 41.04 mHz       (1 %)
    outac1: freq = 251.2 mHz      (4 %), step = 51.66 mHz       (1 %)
    outac1: freq = 316.2 mHz      (5 %), step = 65.04 mHz       (1 %)
    outac1: freq = 398.1 mHz      (6 %), step = 81.88 mHz       (1 %)
    outac1: freq = 501.2 mHz      (7 %), step = 103.1 mHz       (1 %)
    outac1: freq = 631 mHz        (8 %), step = 129.8 mHz       (1 %)
    outac1: freq = 794.3 mHz      (9 %), step = 163.4 mHz       (1 %)
    outac1: freq = 1 Hz          (10 %), step = 205.7 mHz       (1 %)
    outac1: freq = 1.259 Hz      (11 %), step = 258.9 mHz       (1 %)
    outac1: freq = 1.585 Hz      (12 %), step = 326 mHz         (1 %)
    outac1: freq = 1.995 Hz      (13 %), step = 410.4 mHz       (1 %)
    outac1: freq = 2.512 Hz      (14 %), step = 516.6 mHz       (1 %)
    outac1: freq = 3.162 Hz      (15 %), step = 650.4 mHz       (1 %)
    outac1: freq = 3.981 Hz      (16 %), step = 818.8 mHz       (1 %)
    outac1: freq = 5.012 Hz      (17 %), step = 1.031 Hz        (1 %)
    outac1: freq = 6.31 Hz       (18 %), step = 1.298 Hz        (1 %)
    outac1: freq = 7.943 Hz      (19 %), step = 1.634 Hz        (1 %)
    outac1: freq = 10 Hz         (20 %), step = 2.057 Hz        (1 %)
    outac1: freq = 12.59 Hz      (21 %), step = 2.589 Hz        (1 %)
    outac1: freq = 15.85 Hz      (22 %), step = 3.26 Hz         (1 %)
    outac1: freq = 19.95 Hz      (23 %), step = 4.104 Hz        (1 %)
    outac1: freq = 25.12 Hz      (24 %), step = 5.166 Hz        (1 %)
    outac1: freq = 31.62 Hz      (25 %), step = 6.504 Hz        (1 %)
    outac1: freq = 39.81 Hz      (26 %), step = 8.188 Hz        (1 %)
    outac1: freq = 50.12 Hz      (27 %), step = 10.31 Hz        (1 %)
    outac1: freq = 63.1 Hz       (28 %), step = 12.98 Hz        (1 %)
    outac1: freq = 79.43 Hz      (29 %), step = 16.34 Hz        (1 %)
    outac1: freq = 100 Hz        (30 %), step = 20.57 Hz        (1 %)
    outac1: freq = 125.9 Hz      (31 %), step = 25.89 Hz        (1 %)
    outac1: freq = 158.5 Hz      (32 %), step = 32.6 Hz         (1 %)
    outac1: freq = 199.5 Hz      (33 %), step = 41.04 Hz        (1 %)
    outac1: freq = 251.2 Hz      (34 %), step = 51.66 Hz        (1 %)
    outac1: freq = 316.2 Hz      (35 %), step = 65.04 Hz        (1 %)
    outac1: freq = 398.1 Hz      (36 %), step = 81.88 Hz        (1 %)
    outac1: freq = 501.2 Hz      (37 %), step = 103.1 Hz        (1 %)
    outac1: freq = 631 Hz        (38 %), step = 129.8 Hz        (1 %)
    outac1: freq = 794.3 Hz      (39 %), step = 163.4 Hz        (1 %)
    outac1: freq = 1 kHz         (40 %), step = 205.7 Hz        (1 %)
    outac1: freq = 1.259 kHz     (41 %), step = 258.9 Hz        (1 %)
    outac1: freq = 1.585 kHz     (42 %), step = 326 Hz          (1 %)
    outac1: freq = 1.995 kHz     (43 %), step = 410.4 Hz        (1 %)
    outac1: freq = 2.512 kHz     (44 %), step = 516.6 Hz        (1 %)
    outac1: freq = 3.162 kHz     (45 %), step = 650.4 Hz        (1 %)
    outac1: freq = 3.981 kHz     (46 %), step = 818.8 Hz        (1 %)
    outac1: freq = 5.012 kHz     (47 %), step = 1.031 kHz       (1 %)
    outac1: freq = 6.31 kHz      (48 %), step = 1.298 kHz       (1 %)
    outac1: freq = 7.943 kHz     (49 %), step = 1.634 kHz       (1 %)
    outac1: freq = 10 kHz        (50 %), step = 2.057 kHz       (1 %)
    outac1: freq = 12.59 kHz     (51 %), step = 2.589 kHz       (1 %)
    outac1: freq = 15.85 kHz     (52 %), step = 3.26 kHz        (1 %)
    outac1: freq = 19.95 kHz     (53 %), step = 4.104 kHz       (1 %)
    outac1: freq = 25.12 kHz     (54 %), step = 5.166 kHz       (1 %)
    outac1: freq = 31.62 kHz     (55 %), step = 6.504 kHz       (1 %)
    outac1: freq = 39.81 kHz     (56 %), step = 8.188 kHz       (1 %)
    outac1: freq = 50.12 kHz     (57 %), step = 10.31 kHz       (1 %)
    outac1: freq = 63.1 kHz      (58 %), step = 12.98 kHz       (1 %)
    outac1: freq = 79.43 kHz     (59 %), step = 16.34 kHz       (1 %)
    outac1: freq = 100 kHz       (60 %), step = 20.57 kHz       (1 %)
    outac1: freq = 125.9 kHz     (61 %), step = 25.89 kHz       (1 %)
    outac1: freq = 158.5 kHz     (62 %), step = 32.6 kHz        (1 %)
    outac1: freq = 199.5 kHz     (63 %), step = 41.04 kHz       (1 %)
    outac1: freq = 251.2 kHz     (64 %), step = 51.66 kHz       (1 %)
    outac1: freq = 316.2 kHz     (65 %), step = 65.04 kHz       (1 %)
    outac1: freq = 398.1 kHz     (66 %), step = 81.88 kHz       (1 %)
    outac1: freq = 501.2 kHz     (67 %), step = 103.1 kHz       (1 %)
    outac1: freq = 631 kHz       (68 %), step = 129.8 kHz       (1 %)
    outac1: freq = 794.3 kHz     (69 %), step = 163.4 kHz       (1 %)
    outac1: freq = 1 MHz         (70 %), step = 205.7 kHz       (1 %)
    outac1: freq = 1.259 MHz     (71 %), step = 258.9 kHz       (1 %)
    outac1: freq = 1.585 MHz     (72 %), step = 326 kHz         (1 %)
    outac1: freq = 1.995 MHz     (73 %), step = 410.4 kHz       (1 %)
    outac1: freq = 2.512 MHz     (74 %), step = 516.6 kHz       (1 %)
    outac1: freq = 3.162 MHz     (75 %), step = 650.4 kHz       (1 %)
    outac1: freq = 3.981 MHz     (76 %), step = 818.8 kHz       (1 %)
    outac1: freq = 5.012 MHz     (77 %), step = 1.031 MHz       (1 %)
    outac1: freq = 6.31 MHz      (78 %), step = 1.298 MHz       (1 %)
    outac1: freq = 7.943 MHz     (79 %), step = 1.634 MHz       (1 %)
    outac1: freq = 10 MHz        (80 %), step = 2.057 MHz       (1 %)
    outac1: freq = 12.59 MHz     (81 %), step = 2.589 MHz       (1 %)
    outac1: freq = 15.85 MHz     (82 %), step = 3.26 MHz        (1 %)
    outac1: freq = 19.95 MHz     (83 %), step = 4.104 MHz       (1 %)
    outac1: freq = 25.12 MHz     (84 %), step = 5.166 MHz       (1 %)
    outac1: freq = 31.62 MHz     (85 %), step = 6.504 MHz       (1 %)
    outac1: freq = 39.81 MHz     (86 %), step = 8.188 MHz       (1 %)
    outac1: freq = 50.12 MHz     (87 %), step = 10.31 MHz       (1 %)
    outac1: freq = 63.1 MHz      (88 %), step = 12.98 MHz       (1 %)
    outac1: freq = 79.43 MHz     (89 %), step = 16.34 MHz       (1 %)
    outac1: freq = 100 MHz       (90 %), step = 20.57 MHz       (1 %)
    outac1: freq = 125.9 MHz     (91 %), step = 25.89 MHz       (1 %)
    outac1: freq = 158.5 MHz     (92 %), step = 32.6 MHz        (1 %)
    outac1: freq = 199.5 MHz     (93 %), step = 41.04 MHz       (1 %)
    outac1: freq = 251.2 MHz     (94 %), step = 51.66 MHz       (1 %)
    outac1: freq = 316.2 MHz     (95 %), step = 65.04 MHz       (1 %)
    outac1: freq = 398.1 MHz     (96 %), step = 81.88 MHz       (1 %)
    outac1: freq = 501.2 MHz     (97 %), step = 103.1 MHz       (1 %)
    outac1: freq = 631 MHz       (98 %), step = 129.8 MHz       (1 %)
    outac1: freq = 794.3 MHz     (99 %), step = 163.4 MHz       (1 %)
    outac1: freq = 1 GHz        (100 %), step = 205.7 MHz       (1 %)
Accumulated DC solution time =            1.79386 ms.
Intrinsic ac analysis time =              36.8481 ms.
Total time required for ac analysis `outac1': CPU = 27.556 ms, elapsed = 38.7611 ms, util. = 71.1%.
Time accumulated: CPU = 503.69 ms, elapsed = 1.04499 s.
Peak resident memory used = 115 Mbytes.

Licensing Information:
Lic Summary:
[12:30:29.223162] Cdslmd servers:5280@10.6.64.182:27001@10.6.126.11
[12:30:29.223242] Feature usage summary:
[12:30:29.223242] Virtuoso_Multi_mode_Simulation


Aggregate audit (12:30:29 PM, Fri Feb 7, 2025):
Time used: CPU = 507 ms, elapsed = 1.05 s, util. = 48.3%.
Time spent in licensing: elapsed = 449 ms, percentage of total = 42.8%.
Peak memory used = 116 Mbytes.
Simulation started at: 12:30:28 PM, Fri Feb 7, 2025, ended at: 12:30:29 PM, Fri Feb 7, 2025, with elapsed time (wall clock): 1.05 s.
spectre completes with 0 errors, 0 warnings, and 4 notices.
