
Spectre (R) Circuit Simulator
Version 23.1.0.063 64bit -- 10 Jun 2023
Copyright (C) 1989-2023 Cadence Design Systems, Inc. All rights reserved worldwide. Cadence and Spectre are registered trademarks of Cadence Design Systems, Inc. All others are the property of their respective holders.

Includes RSA BSAFE(R) Cryptographic or Security Protocol Software from RSA Security, Inc.

User: leiyuan   Host: icetserver01   HostID: 7F0100   PID: 217728
Memory  available: 384.5031 GB  physical: 404.9105 GB
Linux   : CentOS Linux release 7 (Core)
CPU Type: Intel(R) Xeon(R) Gold 6230 CPU @ 2.10GHz
        Socket: Processors [Frequency] (Hyperthreaded Processor)
        0:       0 [1086.7] ( 80 ),  4 [2452.6] ( 84 ),  8 [1399.9] ( 88 )
                12 [1100.0] ( 92 ), 16 [892.7] ( 96 ), 20 [803.4] ( 100 )
                24 [800.1] ( 104 ), 28 [850.9] ( 108 ), 32 [830.2] ( 112 )
                36 [799.9] ( 116 ), 40 [799.9] ( 120 ), 44 [799.9] ( 124 )
                48 [799.9] ( 128 ), 52 [806.3] ( 132 ), 56 [799.9] ( 136 )
                60 [799.9] ( 140 ), 64 [899.9] ( 144 ), 68 [799.9] ( 148 )
                72 [899.9] ( 152 ), 76 [800.1] ( 156 )
        1:       1 [799.9] ( 81 ),  5 [860.0] ( 85 ),  9 [800.1] ( 89 )
                13 [802.1] ( 93 ), 17 [800.2] ( 97 ), 21 [800.1] ( 101 )
                25 [800.1] ( 105 ), 29 [799.9] ( 109 ), 33 [804.8] ( 113 )
                37 [800.1] ( 117 ), 41 [799.9] ( 121 ), 45 [799.9] ( 125 )
                49 [799.9] ( 129 ), 53 [834.9] ( 133 ), 57 [799.9] ( 137 )
                61 [800.1] ( 141 ), 65 [799.9] ( 145 ), 69 [799.9] ( 149 )
                73 [800.1] ( 153 ), 77 [799.9] ( 157 )
        2:       2 [799.9] ( 82 ),  6 [800.1] ( 86 ), 10 [832.0] ( 90 )
                14 [800.1] ( 94 ), 18 [951.4] ( 98 ), 22 [822.9] ( 102 )
                26 [800.2] ( 106 ), 30 [958.1] ( 110 ), 34 [983.0] ( 114 )
                38 [799.9] ( 118 ), 42 [821.1] ( 122 ), 46 [827.7] ( 126 )
                50 [811.5] ( 130 ), 54 [799.9] ( 134 ), 58 [800.1] ( 138 )
                62 [800.1] ( 142 ), 66 [800.3] ( 146 ), 70 [799.9] ( 150 )
                74 [833.0] ( 154 ), 78 [799.9] ( 158 )
        3:       3 [799.9] ( 83 ),  7 [955.3] ( 87 ), 11 [800.3] ( 91 )
                15 [799.9] ( 95 ), 19 [799.9] ( 99 ), 23 [800.2] ( 103 )
                27 [799.9] ( 107 ), 31 [799.9] ( 111 ), 35 [800.1] ( 115 )
                39 [800.4] ( 119 ), 43 [799.9] ( 123 ), 47 [799.9] ( 127 )
                51 [799.9] ( 131 ), 55 [799.9] ( 135 ), 59 [799.8] ( 139 )
                63 [800.1] ( 143 ), 67 [800.1] ( 147 ), 71 [799.9] ( 151 )
                75 [800.1] ( 155 ), 79 [799.9] ( 159 )
        
System load averages (1min, 5min, 15min) : 0.7 %, 0.8 %, 0.8 %
Hyperthreading is enabled
HPC is enabled


Simulating `./resources/smic018/simResult/test_diffamp1_ac3.scs' on icetserver01 at 12:30:34 PM, Fri Feb 7, 2025 (process id: 217728).
Current working directory: /data/icdesign/ams/ip_migration/users/leiyuan/ipmigration
Environment variable:
    SPECTRE_DEFAULTS=-E -f psfbin
Command line:
    /opt/icdesign/CAD/cadence/SPECTRE231/tools/bin/spectre -64  \
        ./resources/smic018/simResult/test_diffamp1_ac3.scs +escchars  \
        =log ./resources/smic018/simResult/psf/outac3_spectre.out  \
        -format psfascii -raw ./resources/smic018/simResult/psf  \
        ++aps=moderate +mt=32 +lqtimeout 900 -maxw 5 -maxn 5 +logstatus

Licensing Information:
[12:30:35.287602] Configured Lic search path (22.01-s002): 5280@10.6.64.182:27001@10.6.126.11

Licensing Information:
[12:30:35.401984] Periodic Lic check successful

Loading /opt/icdesign/CAD/cadence/SPECTRE231/tools.lnx86/cmi/lib/64bit/5.0/libinfineon_sh.so ...
Loading /opt/icdesign/CAD/cadence/SPECTRE231/tools.lnx86/cmi/lib/64bit/5.0/libphilips_sh.so ...
Loading /opt/icdesign/CAD/cadence/SPECTRE231/tools.lnx86/cmi/lib/64bit/5.0/libsparam_sh.so ...
Loading /opt/icdesign/CAD/cadence/SPECTRE231/tools.lnx86/cmi/lib/64bit/5.0/libstmodels_sh.so ...
Reading file:  /data/icdesign/ams/ip_migration/users/leiyuan/ipmigration/resources/smic018/simResult/test_diffamp1_ac3.scs
Reading file:  /opt/icdesign/CAD/cadence/SPECTRE231/tools.lnx86/spectre/etc/configs/spectre.cfg
Reading file:  /usr/include/stdc-predef.h
Reading file:  /data/icdesign/ams/ip_migration/users/leiyuan/ipmigration/resources/smic018/models/spectre/ms018_v1p7_spe.lib
Reading file:  /data/icdesign/ams/ip_migration/users/leiyuan/ipmigration/resources/smic018/models/spectre/ms018_v1p7_spe.mdl
Reading file:  /home/shunqidai/Sizing/SizingDemoLinuxSpectre_integer_stdcell/smic018/ckt_netlist/twoStageOpamp2.scs
Time for NDB Parsing: CPU = 256.233 ms, elapsed = 1.00501 s.
Time accumulated: CPU = 449.855 ms, elapsed = 1.00501 s.
Peak resident memory used = 106 Mbytes.

Time for Elaboration: CPU = 38.835 ms, elapsed = 39.0079 ms.
Time accumulated: CPU = 488.978 ms, elapsed = 1.04431 s.
Peak resident memory used = 112 Mbytes.


Notice from spectre during hierarchy flattening.
    The value 'psf' specified for the 'checklimitdest' option will no longer be supported in future releases. Use 'spectre -h' to see other recommended values for the 'checklimitdest' option.


Time for EDB Visiting: CPU = 1.527 ms, elapsed = 2.17986 ms.
Time accumulated: CPU = 490.708 ms, elapsed = 1.04669 s.
Peak resident memory used = 113 Mbytes.


Notice from spectre during initial setup.
    Multithreading is disabled due to the size of the design being too small.


Global user options:
            vabstol = 1e-06
            iabstol = 1e-12
               temp = 27
               gmin = 1e-12
             rforce = 1
           maxnotes = 5
           maxwarns = 5
             digits = 5
               cols = 80
             pivrel = 0.001
           sensfile = ../psf/sens.output
     checklimitdest = psf
               save = allpub
     subcktprobelvl = 2
             reltol = 0.001
               tnom = 27
             scalem = 1
              scale = 1e-06

Scoped user options:

Circuit inventory:
              nodes 10
            bsim3v3 8     
          capacitor 2     
            isource 1     
           resistor 1     
            vsource 4     

Analysis and control statement inventory:
                 ac 1     

Output statements:
             .probe 0     
           .measure 0     
               save 0     


Notice from spectre during initial setup.
    1 vsources are shorted because their absolute value is less than or equal to 'vabsshort'.
    Fast APS enabled.

Time for parsing: CPU = 7.316 ms, elapsed = 9.73582 ms.
Time accumulated: CPU = 498.207 ms, elapsed = 1.05661 s.
Peak resident memory used = 115 Mbytes.

~~~~~~~~~~~~~~~~~~~~~~
Pre-Simulation Summary
~~~~~~~~~~~~~~~~~~~~~~
   -   (Fast APS) Multi-threading. The recommended number of threads is 1, consider adding +mt=1 on command line.
~~~~~~~~~~~~~~~~~~~~~~

*************************************************
AC Analysis `outac3': freq = (100 mHz -> 100 GHz)
*************************************************
Trying `homotopy = gmin'.
DC simulation time: CPU = 6.319 ms, elapsed = 6.33502 ms.

Opening the PSFASCII file ./resources/smic018/simResult/psf/outac3.ac ...
    outac3: freq = 199.5 mHz    (2.5 %), step = 41.04 mHz    (833 m%)
    outac3: freq = 251.2 mHz   (3.33 %), step = 51.66 mHz    (833 m%)
    outac3: freq = 316.2 mHz   (4.17 %), step = 65.04 mHz    (833 m%)
    outac3: freq = 398.1 mHz      (5 %), step = 81.88 mHz    (833 m%)
    outac3: freq = 501.2 mHz   (5.83 %), step = 103.1 mHz    (833 m%)
    outac3: freq = 631 mHz     (6.67 %), step = 129.8 mHz    (833 m%)
    outac3: freq = 794.3 mHz    (7.5 %), step = 163.4 mHz    (833 m%)
    outac3: freq = 1 Hz        (8.33 %), step = 205.7 mHz    (833 m%)
    outac3: freq = 1.259 Hz    (9.17 %), step = 258.9 mHz    (833 m%)
    outac3: freq = 1.585 Hz      (10 %), step = 326 mHz      (833 m%)
    outac3: freq = 1.995 Hz    (10.8 %), step = 410.4 mHz    (833 m%)
    outac3: freq = 2.512 Hz    (11.7 %), step = 516.6 mHz    (833 m%)
    outac3: freq = 3.162 Hz    (12.5 %), step = 650.4 mHz    (833 m%)
    outac3: freq = 3.981 Hz    (13.3 %), step = 818.8 mHz    (833 m%)
    outac3: freq = 5.012 Hz    (14.2 %), step = 1.031 Hz     (833 m%)
    outac3: freq = 6.31 Hz       (15 %), step = 1.298 Hz     (833 m%)
    outac3: freq = 7.943 Hz    (15.8 %), step = 1.634 Hz     (833 m%)
    outac3: freq = 10 Hz       (16.7 %), step = 2.057 Hz     (833 m%)
    outac3: freq = 12.59 Hz    (17.5 %), step = 2.589 Hz     (833 m%)
    outac3: freq = 15.85 Hz    (18.3 %), step = 3.26 Hz      (833 m%)
    outac3: freq = 19.95 Hz    (19.2 %), step = 4.104 Hz     (833 m%)
    outac3: freq = 25.12 Hz      (20 %), step = 5.166 Hz     (833 m%)
    outac3: freq = 31.62 Hz    (20.8 %), step = 6.504 Hz     (833 m%)
    outac3: freq = 39.81 Hz    (21.7 %), step = 8.188 Hz     (833 m%)
    outac3: freq = 50.12 Hz    (22.5 %), step = 10.31 Hz     (833 m%)
    outac3: freq = 63.1 Hz     (23.3 %), step = 12.98 Hz     (833 m%)
    outac3: freq = 79.43 Hz    (24.2 %), step = 16.34 Hz     (833 m%)
    outac3: freq = 100 Hz        (25 %), step = 20.57 Hz     (833 m%)
    outac3: freq = 125.9 Hz    (25.8 %), step = 25.89 Hz     (833 m%)
    outac3: freq = 158.5 Hz    (26.7 %), step = 32.6 Hz      (833 m%)
    outac3: freq = 199.5 Hz    (27.5 %), step = 41.04 Hz     (833 m%)
    outac3: freq = 251.2 Hz    (28.3 %), step = 51.66 Hz     (833 m%)
    outac3: freq = 316.2 Hz    (29.2 %), step = 65.04 Hz     (833 m%)
    outac3: freq = 398.1 Hz      (30 %), step = 81.88 Hz     (833 m%)
    outac3: freq = 501.2 Hz    (30.8 %), step = 103.1 Hz     (833 m%)
    outac3: freq = 631 Hz      (31.7 %), step = 129.8 Hz     (833 m%)
    outac3: freq = 794.3 Hz    (32.5 %), step = 163.4 Hz     (833 m%)
    outac3: freq = 1 kHz       (33.3 %), step = 205.7 Hz     (833 m%)
    outac3: freq = 1.259 kHz   (34.2 %), step = 258.9 Hz     (833 m%)
    outac3: freq = 1.585 kHz     (35 %), step = 326 Hz       (833 m%)
    outac3: freq = 1.995 kHz   (35.8 %), step = 410.4 Hz     (833 m%)
    outac3: freq = 2.512 kHz   (36.7 %), step = 516.6 Hz     (833 m%)
    outac3: freq = 3.162 kHz   (37.5 %), step = 650.4 Hz     (833 m%)
    outac3: freq = 3.981 kHz   (38.3 %), step = 818.8 Hz     (833 m%)
    outac3: freq = 5.012 kHz   (39.2 %), step = 1.031 kHz    (833 m%)
    outac3: freq = 6.31 kHz      (40 %), step = 1.298 kHz    (833 m%)
    outac3: freq = 7.943 kHz   (40.8 %), step = 1.634 kHz    (833 m%)
    outac3: freq = 10 kHz      (41.7 %), step = 2.057 kHz    (833 m%)
    outac3: freq = 12.59 kHz   (42.5 %), step = 2.589 kHz    (833 m%)
    outac3: freq = 15.85 kHz   (43.3 %), step = 3.26 kHz     (833 m%)
    outac3: freq = 19.95 kHz   (44.2 %), step = 4.104 kHz    (833 m%)
    outac3: freq = 25.12 kHz     (45 %), step = 5.166 kHz    (833 m%)
    outac3: freq = 31.62 kHz   (45.8 %), step = 6.504 kHz    (833 m%)
    outac3: freq = 39.81 kHz   (46.7 %), step = 8.188 kHz    (833 m%)
    outac3: freq = 50.12 kHz   (47.5 %), step = 10.31 kHz    (833 m%)
    outac3: freq = 63.1 kHz    (48.3 %), step = 12.98 kHz    (833 m%)
    outac3: freq = 79.43 kHz   (49.2 %), step = 16.34 kHz    (833 m%)
    outac3: freq = 100 kHz       (50 %), step = 20.57 kHz    (833 m%)
    outac3: freq = 125.9 kHz   (50.8 %), step = 25.89 kHz    (833 m%)
    outac3: freq = 158.5 kHz   (51.7 %), step = 32.6 kHz     (833 m%)
    outac3: freq = 199.5 kHz   (52.5 %), step = 41.04 kHz    (833 m%)
    outac3: freq = 251.2 kHz   (53.3 %), step = 51.66 kHz    (833 m%)
    outac3: freq = 316.2 kHz   (54.2 %), step = 65.04 kHz    (833 m%)
    outac3: freq = 398.1 kHz     (55 %), step = 81.88 kHz    (833 m%)
    outac3: freq = 501.2 kHz   (55.8 %), step = 103.1 kHz    (833 m%)
    outac3: freq = 631 kHz     (56.7 %), step = 129.8 kHz    (833 m%)
    outac3: freq = 794.3 kHz   (57.5 %), step = 163.4 kHz    (833 m%)
    outac3: freq = 1 MHz       (58.3 %), step = 205.7 kHz    (833 m%)
    outac3: freq = 1.259 MHz   (59.2 %), step = 258.9 kHz    (833 m%)
    outac3: freq = 1.585 MHz     (60 %), step = 326 kHz      (833 m%)
    outac3: freq = 1.995 MHz   (60.8 %), step = 410.4 kHz    (833 m%)
    outac3: freq = 2.512 MHz   (61.7 %), step = 516.6 kHz    (833 m%)
    outac3: freq = 3.162 MHz   (62.5 %), step = 650.4 kHz    (833 m%)
    outac3: freq = 3.981 MHz   (63.3 %), step = 818.8 kHz    (833 m%)
    outac3: freq = 5.012 MHz   (64.2 %), step = 1.031 MHz    (833 m%)
    outac3: freq = 6.31 MHz      (65 %), step = 1.298 MHz    (833 m%)
    outac3: freq = 7.943 MHz   (65.8 %), step = 1.634 MHz    (833 m%)
    outac3: freq = 10 MHz      (66.7 %), step = 2.057 MHz    (833 m%)
    outac3: freq = 12.59 MHz   (67.5 %), step = 2.589 MHz    (833 m%)
    outac3: freq = 15.85 MHz   (68.3 %), step = 3.26 MHz     (833 m%)
    outac3: freq = 19.95 MHz   (69.2 %), step = 4.104 MHz    (833 m%)
    outac3: freq = 25.12 MHz     (70 %), step = 5.166 MHz    (833 m%)
    outac3: freq = 31.62 MHz   (70.8 %), step = 6.504 MHz    (833 m%)
    outac3: freq = 39.81 MHz   (71.7 %), step = 8.188 MHz    (833 m%)
    outac3: freq = 50.12 MHz   (72.5 %), step = 10.31 MHz    (833 m%)
    outac3: freq = 63.1 MHz    (73.3 %), step = 12.98 MHz    (833 m%)
    outac3: freq = 79.43 MHz   (74.2 %), step = 16.34 MHz    (833 m%)
    outac3: freq = 100 MHz       (75 %), step = 20.57 MHz    (833 m%)
    outac3: freq = 125.9 MHz   (75.8 %), step = 25.89 MHz    (833 m%)
    outac3: freq = 158.5 MHz   (76.7 %), step = 32.6 MHz     (833 m%)
    outac3: freq = 199.5 MHz   (77.5 %), step = 41.04 MHz    (833 m%)
    outac3: freq = 251.2 MHz   (78.3 %), step = 51.66 MHz    (833 m%)
    outac3: freq = 316.2 MHz   (79.2 %), step = 65.04 MHz    (833 m%)
    outac3: freq = 398.1 MHz     (80 %), step = 81.88 MHz    (833 m%)
    outac3: freq = 501.2 MHz   (80.8 %), step = 103.1 MHz    (833 m%)
    outac3: freq = 631 MHz     (81.7 %), step = 129.8 MHz    (833 m%)
    outac3: freq = 794.3 MHz   (82.5 %), step = 163.4 MHz    (833 m%)
    outac3: freq = 1 GHz       (83.3 %), step = 205.7 MHz    (833 m%)
    outac3: freq = 1.259 GHz   (84.2 %), step = 258.9 MHz    (833 m%)
    outac3: freq = 1.585 GHz     (85 %), step = 326 MHz      (833 m%)
    outac3: freq = 1.995 GHz   (85.8 %), step = 410.4 MHz    (833 m%)
    outac3: freq = 2.512 GHz   (86.7 %), step = 516.6 MHz    (833 m%)
    outac3: freq = 3.162 GHz   (87.5 %), step = 650.4 MHz    (833 m%)
    outac3: freq = 3.981 GHz   (88.3 %), step = 818.8 MHz    (833 m%)
    outac3: freq = 5.012 GHz   (89.2 %), step = 1.031 GHz    (833 m%)
    outac3: freq = 6.31 GHz      (90 %), step = 1.298 GHz    (833 m%)
    outac3: freq = 7.943 GHz   (90.8 %), step = 1.634 GHz    (833 m%)
    outac3: freq = 10 GHz      (91.7 %), step = 2.057 GHz    (833 m%)
    outac3: freq = 12.59 GHz   (92.5 %), step = 2.589 GHz    (833 m%)
    outac3: freq = 15.85 GHz   (93.3 %), step = 3.26 GHz     (833 m%)
    outac3: freq = 19.95 GHz   (94.2 %), step = 4.104 GHz    (833 m%)
    outac3: freq = 25.12 GHz     (95 %), step = 5.166 GHz    (833 m%)
    outac3: freq = 31.62 GHz   (95.8 %), step = 6.504 GHz    (833 m%)
    outac3: freq = 39.81 GHz   (96.7 %), step = 8.188 GHz    (833 m%)
    outac3: freq = 50.12 GHz   (97.5 %), step = 10.31 GHz    (833 m%)
    outac3: freq = 63.1 GHz    (98.3 %), step = 12.98 GHz    (833 m%)
    outac3: freq = 79.43 GHz   (99.2 %), step = 16.34 GHz    (833 m%)
    outac3: freq = 100 GHz      (100 %), step = 20.57 GHz    (833 m%)
Accumulated DC solution time =            6.423 ms.
Intrinsic ac analysis time =              38.0092 ms.
Total time required for ac analysis `outac3': CPU = 29.222 ms, elapsed = 44.528 ms, util. = 65.6%.
Time accumulated: CPU = 535.023 ms, elapsed = 1.11001 s.
Peak resident memory used = 118 Mbytes.

Licensing Information:
Lic Summary:
[12:30:35.261970] Cdslmd servers:5280@10.6.64.182:27001@10.6.126.11
[12:30:35.262026] Feature usage summary:
[12:30:35.262026] Virtuoso_Multi_mode_Simulation


Aggregate audit (12:30:35 PM, Fri Feb 7, 2025):
Time used: CPU = 537 ms, elapsed = 1.11 s, util. = 48.3%.
Time spent in licensing: elapsed = 650 ms, percentage of total = 58.4%.
Peak memory used = 118 Mbytes.
Simulation started at: 12:30:34 PM, Fri Feb 7, 2025, ended at: 12:30:35 PM, Fri Feb 7, 2025, with elapsed time (wall clock): 1.11 s.
spectre completes with 0 errors, 0 warnings, and 5 notices.
