
Spectre (R) Circuit Simulator
Version 23.1.0.063 64bit -- 10 Jun 2023
Copyright (C) 1989-2023 Cadence Design Systems, Inc. All rights reserved worldwide. Cadence and Spectre are registered trademarks of Cadence Design Systems, Inc. All others are the property of their respective holders.

Includes RSA BSAFE(R) Cryptographic or Security Protocol Software from RSA Security, Inc.

User: leiyuan   Host: icetserver01   HostID: 7F0100   PID: 24249
Memory  available: 385.7456 GB  physical: 404.9105 GB
Linux   : CentOS Linux release 7 (Core)
CPU Type: Intel(R) Xeon(R) Gold 6230 CPU @ 2.10GHz
        Socket: Processors [Frequency] (Hyperthreaded Processor)
        0:       0 [894.0] ( 80 ),  4 [801.7] ( 84 ),  8 [799.9] ( 88 )
                12 [799.9] ( 92 ), 16 [799.9] ( 96 ), 20 [799.9] ( 100 )
                24 [841.7] ( 104 ), 28 [834.3] ( 108 ), 32 [800.1] ( 112 )
                36 [799.9] ( 116 ), 40 [800.2] ( 120 ), 44 [799.9] ( 124 )
                48 [808.1] ( 128 ), 52 [800.1] ( 132 ), 56 [799.9] ( 136 )
                60 [799.9] ( 140 ), 64 [799.9] ( 144 ), 68 [799.9] ( 148 )
                72 [878.5] ( 152 ), 76 [799.9] ( 156 )
        1:       1 [799.9] ( 81 ),  5 [896.3] ( 85 ),  9 [799.9] ( 89 )
                13 [799.9] ( 93 ), 17 [800.1] ( 97 ), 21 [3829.7] ( 101 )
                25 [799.9] ( 105 ), 29 [799.9] ( 109 ), 33 [799.9] ( 113 )
                37 [870.8] ( 117 ), 41 [799.9] ( 121 ), 45 [863.9] ( 125 )
                49 [799.9] ( 129 ), 53 [800.1] ( 133 ), 57 [808.6] ( 137 )
                61 [800.1] ( 141 ), 65 [804.0] ( 145 ), 69 [799.9] ( 149 )
                73 [799.9] ( 153 ), 77 [799.9] ( 157 )
        2:       2 [800.1] ( 82 ),  6 [800.2] ( 86 ), 10 [800.1] ( 90 )
                14 [800.1] ( 94 ), 18 [800.1] ( 98 ), 22 [800.1] ( 102 )
                26 [799.9] ( 106 ), 30 [800.1] ( 110 ), 34 [799.9] ( 114 )
                38 [800.1] ( 118 ), 42 [800.1] ( 122 ), 46 [800.1] ( 126 )
                50 [799.9] ( 130 ), 54 [800.1] ( 134 ), 58 [799.9] ( 138 )
                62 [800.1] ( 142 ), 66 [799.9] ( 146 ), 70 [800.1] ( 150 )
                74 [800.1] ( 154 ), 78 [800.1] ( 158 )
        3:       3 [800.1] ( 83 ),  7 [884.4] ( 87 ), 11 [890.3] ( 91 )
                15 [799.5] ( 95 ), 19 [800.1] ( 99 ), 23 [799.9] ( 103 )
                27 [799.9] ( 107 ), 31 [799.9] ( 111 ), 35 [799.9] ( 115 )
                39 [800.1] ( 119 ), 43 [800.1] ( 123 ), 47 [799.9] ( 127 )
                51 [799.9] ( 131 ), 55 [799.9] ( 135 ), 59 [800.1] ( 139 )
                63 [800.2] ( 143 ), 67 [799.9] ( 147 ), 71 [800.1] ( 151 )
                75 [800.1] ( 155 ), 79 [800.1] ( 159 )
        
System load averages (1min, 5min, 15min) : 1.1 %, 1.1 %, 0.9 %
Hyperthreading is enabled
HPC is enabled


Simulating `./resources/smic018/simResult/test_diffamp1_ac3.scs' on icetserver01 at 3:06:54 PM, Thur Feb 6, 2025 (process id: 24249).
Current working directory: /data/icdesign/ams/ip_migration/users/leiyuan/ipmigration
Environment variable:
    SPECTRE_DEFAULTS=-E -f psfbin
Command line:
    /opt/icdesign/CAD/cadence/SPECTRE231/tools/bin/spectre -64  \
        ./resources/smic018/simResult/test_diffamp1_ac3.scs +escchars  \
        =log ./resources/smic018/simResult/psf/outac3_spectre.out  \
        -format psfascii -raw ./resources/smic018/simResult/psf  \
        ++aps=moderate +mt=32 +lqtimeout 900 -maxw 5 -maxn 5 +logstatus

Licensing Information:
[15:06:54.287658] Configured Lic search path (22.01-s002): 5280@10.6.64.182:27001@10.6.126.11

Licensing Information:
[15:06:54.212666] Periodic Lic check successful

Loading /opt/icdesign/CAD/cadence/SPECTRE231/tools.lnx86/cmi/lib/64bit/5.0/libinfineon_sh.so ...
Loading /opt/icdesign/CAD/cadence/SPECTRE231/tools.lnx86/cmi/lib/64bit/5.0/libphilips_sh.so ...
Loading /opt/icdesign/CAD/cadence/SPECTRE231/tools.lnx86/cmi/lib/64bit/5.0/libsparam_sh.so ...
Loading /opt/icdesign/CAD/cadence/SPECTRE231/tools.lnx86/cmi/lib/64bit/5.0/libstmodels_sh.so ...
Reading file:  /data/icdesign/ams/ip_migration/users/leiyuan/ipmigration/resources/smic018/simResult/test_diffamp1_ac3.scs
Reading file:  /opt/icdesign/CAD/cadence/SPECTRE231/tools.lnx86/spectre/etc/configs/spectre.cfg
Reading file:  /usr/include/stdc-predef.h
Reading file:  /data/icdesign/ams/ip_migration/users/leiyuan/ipmigration/resources/smic018/models/spectre/ms018_v1p7_spe.lib
Reading file:  /data/icdesign/ams/ip_migration/users/leiyuan/ipmigration/resources/smic018/models/spectre/ms018_v1p7_spe.mdl
Reading file:  /home/shunqidai/Sizing/SizingDemoLinuxSpectre_integer_stdcell/smic018/ckt_netlist/twoStageOpamp2.scs
Time for NDB Parsing: CPU = 238.012 ms, elapsed = 679.513 ms.
Time accumulated: CPU = 438.439 ms, elapsed = 679.518 ms.
Peak resident memory used = 106 Mbytes.

Time for Elaboration: CPU = 41.759 ms, elapsed = 41.9481 ms.
Time accumulated: CPU = 480.494 ms, elapsed = 721.762 ms.
Peak resident memory used = 112 Mbytes.


Notice from spectre during hierarchy flattening.
    The value 'psf' specified for the 'checklimitdest' option will no longer be supported in future releases. Use 'spectre -h' to see other recommended values for the 'checklimitdest' option.


Time for EDB Visiting: CPU = 1.778 ms, elapsed = 2.5239 ms.
Time accumulated: CPU = 482.505 ms, elapsed = 724.518 ms.
Peak resident memory used = 113 Mbytes.


Notice from spectre during initial setup.
    Multithreading is disabled due to the size of the design being too small.


Global user options:
            vabstol = 1e-06
            iabstol = 1e-12
               temp = 27
               gmin = 1e-12
             rforce = 1
           maxnotes = 5
           maxwarns = 5
             digits = 5
               cols = 80
             pivrel = 0.001
           sensfile = ../psf/sens.output
     checklimitdest = psf
               save = allpub
     subcktprobelvl = 2
             reltol = 0.001
               tnom = 27
             scalem = 1
              scale = 1e-06

Scoped user options:

Circuit inventory:
              nodes 10
            bsim3v3 8     
          capacitor 2     
            isource 1     
           resistor 1     
            vsource 4     

Analysis and control statement inventory:
                 ac 1     

Output statements:
             .probe 0     
           .measure 0     
               save 0     


Notice from spectre during initial setup.
    1 vsources are shorted because their absolute value is less than or equal to 'vabsshort'.
    Fast APS enabled.

Time for parsing: CPU = 7.589 ms, elapsed = 10.2379 ms.
Time accumulated: CPU = 490.302 ms, elapsed = 734.961 ms.
Peak resident memory used = 115 Mbytes.

~~~~~~~~~~~~~~~~~~~~~~
Pre-Simulation Summary
~~~~~~~~~~~~~~~~~~~~~~
   -   (Fast APS) Multi-threading. The recommended number of threads is 1, consider adding +mt=1 on command line.
~~~~~~~~~~~~~~~~~~~~~~

*************************************************
AC Analysis `outac3': freq = (100 mHz -> 100 GHz)
*************************************************
DC simulation time: CPU = 2.853 ms, elapsed = 2.86102 ms.

Opening the PSFASCII file ./resources/smic018/simResult/psf/outac3.ac ...
    outac3: freq = 199.5 mHz    (2.5 %), step = 41.04 mHz    (833 m%)
    outac3: freq = 251.2 mHz   (3.33 %), step = 51.66 mHz    (833 m%)
    outac3: freq = 316.2 mHz   (4.17 %), step = 65.04 mHz    (833 m%)
    outac3: freq = 398.1 mHz      (5 %), step = 81.88 mHz    (833 m%)
    outac3: freq = 501.2 mHz   (5.83 %), step = 103.1 mHz    (833 m%)
    outac3: freq = 631 mHz     (6.67 %), step = 129.8 mHz    (833 m%)
    outac3: freq = 794.3 mHz    (7.5 %), step = 163.4 mHz    (833 m%)
    outac3: freq = 1 Hz        (8.33 %), step = 205.7 mHz    (833 m%)
    outac3: freq = 1.259 Hz    (9.17 %), step = 258.9 mHz    (833 m%)
    outac3: freq = 1.585 Hz      (10 %), step = 326 mHz      (833 m%)
    outac3: freq = 1.995 Hz    (10.8 %), step = 410.4 mHz    (833 m%)
    outac3: freq = 2.512 Hz    (11.7 %), step = 516.6 mHz    (833 m%)
    outac3: freq = 3.162 Hz    (12.5 %), step = 650.4 mHz    (833 m%)
    outac3: freq = 3.981 Hz    (13.3 %), step = 818.8 mHz    (833 m%)
    outac3: freq = 5.012 Hz    (14.2 %), step = 1.031 Hz     (833 m%)
    outac3: freq = 6.31 Hz       (15 %), step = 1.298 Hz     (833 m%)
    outac3: freq = 7.943 Hz    (15.8 %), step = 1.634 Hz     (833 m%)
    outac3: freq = 10 Hz       (16.7 %), step = 2.057 Hz     (833 m%)
    outac3: freq = 12.59 Hz    (17.5 %), step = 2.589 Hz     (833 m%)
    outac3: freq = 15.85 Hz    (18.3 %), step = 3.26 Hz      (833 m%)
    outac3: freq = 19.95 Hz    (19.2 %), step = 4.104 Hz     (833 m%)
    outac3: freq = 25.12 Hz      (20 %), step = 5.166 Hz     (833 m%)
    outac3: freq = 31.62 Hz    (20.8 %), step = 6.504 Hz     (833 m%)
    outac3: freq = 39.81 Hz    (21.7 %), step = 8.188 Hz     (833 m%)
    outac3: freq = 50.12 Hz    (22.5 %), step = 10.31 Hz     (833 m%)
    outac3: freq = 63.1 Hz     (23.3 %), step = 12.98 Hz     (833 m%)
    outac3: freq = 79.43 Hz    (24.2 %), step = 16.34 Hz     (833 m%)
    outac3: freq = 100 Hz        (25 %), step = 20.57 Hz     (833 m%)
    outac3: freq = 125.9 Hz    (25.8 %), step = 25.89 Hz     (833 m%)
    outac3: freq = 158.5 Hz    (26.7 %), step = 32.6 Hz      (833 m%)
    outac3: freq = 199.5 Hz    (27.5 %), step = 41.04 Hz     (833 m%)
    outac3: freq = 251.2 Hz    (28.3 %), step = 51.66 Hz     (833 m%)
    outac3: freq = 316.2 Hz    (29.2 %), step = 65.04 Hz     (833 m%)
    outac3: freq = 398.1 Hz      (30 %), step = 81.88 Hz     (833 m%)
    outac3: freq = 501.2 Hz    (30.8 %), step = 103.1 Hz     (833 m%)
    outac3: freq = 631 Hz      (31.7 %), step = 129.8 Hz     (833 m%)
    outac3: freq = 794.3 Hz    (32.5 %), step = 163.4 Hz     (833 m%)
    outac3: freq = 1 kHz       (33.3 %), step = 205.7 Hz     (833 m%)
    outac3: freq = 1.259 kHz   (34.2 %), step = 258.9 Hz     (833 m%)
    outac3: freq = 1.585 kHz     (35 %), step = 326 Hz       (833 m%)
    outac3: freq = 1.995 kHz   (35.8 %), step = 410.4 Hz     (833 m%)
    outac3: freq = 2.512 kHz   (36.7 %), step = 516.6 Hz     (833 m%)
    outac3: freq = 3.162 kHz   (37.5 %), step = 650.4 Hz     (833 m%)
    outac3: freq = 3.981 kHz   (38.3 %), step = 818.8 Hz     (833 m%)
    outac3: freq = 5.012 kHz   (39.2 %), step = 1.031 kHz    (833 m%)
    outac3: freq = 6.31 kHz      (40 %), step = 1.298 kHz    (833 m%)
    outac3: freq = 7.943 kHz   (40.8 %), step = 1.634 kHz    (833 m%)
    outac3: freq = 10 kHz      (41.7 %), step = 2.057 kHz    (833 m%)
    outac3: freq = 12.59 kHz   (42.5 %), step = 2.589 kHz    (833 m%)
    outac3: freq = 15.85 kHz   (43.3 %), step = 3.26 kHz     (833 m%)
    outac3: freq = 19.95 kHz   (44.2 %), step = 4.104 kHz    (833 m%)
    outac3: freq = 25.12 kHz     (45 %), step = 5.166 kHz    (833 m%)
    outac3: freq = 31.62 kHz   (45.8 %), step = 6.504 kHz    (833 m%)
    outac3: freq = 39.81 kHz   (46.7 %), step = 8.188 kHz    (833 m%)
    outac3: freq = 50.12 kHz   (47.5 %), step = 10.31 kHz    (833 m%)
    outac3: freq = 63.1 kHz    (48.3 %), step = 12.98 kHz    (833 m%)
    outac3: freq = 79.43 kHz   (49.2 %), step = 16.34 kHz    (833 m%)
    outac3: freq = 100 kHz       (50 %), step = 20.57 kHz    (833 m%)
    outac3: freq = 125.9 kHz   (50.8 %), step = 25.89 kHz    (833 m%)
    outac3: freq = 158.5 kHz   (51.7 %), step = 32.6 kHz     (833 m%)
    outac3: freq = 199.5 kHz   (52.5 %), step = 41.04 kHz    (833 m%)
    outac3: freq = 251.2 kHz   (53.3 %), step = 51.66 kHz    (833 m%)
    outac3: freq = 316.2 kHz   (54.2 %), step = 65.04 kHz    (833 m%)
    outac3: freq = 398.1 kHz     (55 %), step = 81.88 kHz    (833 m%)
    outac3: freq = 501.2 kHz   (55.8 %), step = 103.1 kHz    (833 m%)
    outac3: freq = 631 kHz     (56.7 %), step = 129.8 kHz    (833 m%)
    outac3: freq = 794.3 kHz   (57.5 %), step = 163.4 kHz    (833 m%)
    outac3: freq = 1 MHz       (58.3 %), step = 205.7 kHz    (833 m%)
    outac3: freq = 1.259 MHz   (59.2 %), step = 258.9 kHz    (833 m%)
    outac3: freq = 1.585 MHz     (60 %), step = 326 kHz      (833 m%)
    outac3: freq = 1.995 MHz   (60.8 %), step = 410.4 kHz    (833 m%)
    outac3: freq = 2.512 MHz   (61.7 %), step = 516.6 kHz    (833 m%)
    outac3: freq = 3.162 MHz   (62.5 %), step = 650.4 kHz    (833 m%)
    outac3: freq = 3.981 MHz   (63.3 %), step = 818.8 kHz    (833 m%)
    outac3: freq = 5.012 MHz   (64.2 %), step = 1.031 MHz    (833 m%)
    outac3: freq = 6.31 MHz      (65 %), step = 1.298 MHz    (833 m%)
    outac3: freq = 7.943 MHz   (65.8 %), step = 1.634 MHz    (833 m%)
    outac3: freq = 10 MHz      (66.7 %), step = 2.057 MHz    (833 m%)
    outac3: freq = 12.59 MHz   (67.5 %), step = 2.589 MHz    (833 m%)
    outac3: freq = 15.85 MHz   (68.3 %), step = 3.26 MHz     (833 m%)
    outac3: freq = 19.95 MHz   (69.2 %), step = 4.104 MHz    (833 m%)
    outac3: freq = 25.12 MHz     (70 %), step = 5.166 MHz    (833 m%)
    outac3: freq = 31.62 MHz   (70.8 %), step = 6.504 MHz    (833 m%)
    outac3: freq = 39.81 MHz   (71.7 %), step = 8.188 MHz    (833 m%)
    outac3: freq = 50.12 MHz   (72.5 %), step = 10.31 MHz    (833 m%)
    outac3: freq = 63.1 MHz    (73.3 %), step = 12.98 MHz    (833 m%)
    outac3: freq = 79.43 MHz   (74.2 %), step = 16.34 MHz    (833 m%)
    outac3: freq = 100 MHz       (75 %), step = 20.57 MHz    (833 m%)
    outac3: freq = 125.9 MHz   (75.8 %), step = 25.89 MHz    (833 m%)
    outac3: freq = 158.5 MHz   (76.7 %), step = 32.6 MHz     (833 m%)
    outac3: freq = 199.5 MHz   (77.5 %), step = 41.04 MHz    (833 m%)
    outac3: freq = 251.2 MHz   (78.3 %), step = 51.66 MHz    (833 m%)
    outac3: freq = 316.2 MHz   (79.2 %), step = 65.04 MHz    (833 m%)
    outac3: freq = 398.1 MHz     (80 %), step = 81.88 MHz    (833 m%)
    outac3: freq = 501.2 MHz   (80.8 %), step = 103.1 MHz    (833 m%)
    outac3: freq = 631 MHz     (81.7 %), step = 129.8 MHz    (833 m%)
    outac3: freq = 794.3 MHz   (82.5 %), step = 163.4 MHz    (833 m%)
    outac3: freq = 1 GHz       (83.3 %), step = 205.7 MHz    (833 m%)
    outac3: freq = 1.259 GHz   (84.2 %), step = 258.9 MHz    (833 m%)
    outac3: freq = 1.585 GHz     (85 %), step = 326 MHz      (833 m%)
    outac3: freq = 1.995 GHz   (85.8 %), step = 410.4 MHz    (833 m%)
    outac3: freq = 2.512 GHz   (86.7 %), step = 516.6 MHz    (833 m%)
    outac3: freq = 3.162 GHz   (87.5 %), step = 650.4 MHz    (833 m%)
    outac3: freq = 3.981 GHz   (88.3 %), step = 818.8 MHz    (833 m%)
    outac3: freq = 5.012 GHz   (89.2 %), step = 1.031 GHz    (833 m%)
    outac3: freq = 6.31 GHz      (90 %), step = 1.298 GHz    (833 m%)
    outac3: freq = 7.943 GHz   (90.8 %), step = 1.634 GHz    (833 m%)
    outac3: freq = 10 GHz      (91.7 %), step = 2.057 GHz    (833 m%)
    outac3: freq = 12.59 GHz   (92.5 %), step = 2.589 GHz    (833 m%)
    outac3: freq = 15.85 GHz   (93.3 %), step = 3.26 GHz     (833 m%)
    outac3: freq = 19.95 GHz   (94.2 %), step = 4.104 GHz    (833 m%)
    outac3: freq = 25.12 GHz     (95 %), step = 5.166 GHz    (833 m%)
    outac3: freq = 31.62 GHz   (95.8 %), step = 6.504 GHz    (833 m%)
    outac3: freq = 39.81 GHz   (96.7 %), step = 8.188 GHz    (833 m%)
    outac3: freq = 50.12 GHz   (97.5 %), step = 10.31 GHz    (833 m%)
    outac3: freq = 63.1 GHz    (98.3 %), step = 12.98 GHz    (833 m%)
    outac3: freq = 79.43 GHz   (99.2 %), step = 16.34 GHz    (833 m%)
    outac3: freq = 100 GHz      (100 %), step = 20.57 GHz    (833 m%)
Accumulated DC solution time =            2.96712 ms.
Intrinsic ac analysis time =              33.8058 ms.
Total time required for ac analysis `outac3': CPU = 27.193 ms, elapsed = 36.8781 ms, util. = 73.7%.
Time accumulated: CPU = 524.813 ms, elapsed = 780.409 ms.
Peak resident memory used = 118 Mbytes.

Licensing Information:
Lic Summary:
[15:06:55.106395] Cdslmd servers:5280@10.6.64.182:27001@10.6.126.11
[15:06:55.106443] Feature usage summary:
[15:06:55.106443] Virtuoso_Multi_mode_Simulation


Aggregate audit (3:06:55 PM, Thur Feb 6, 2025):
Time used: CPU = 527 ms, elapsed = 784 ms, util. = 67.3%.
Time spent in licensing: elapsed = 43.9 ms, percentage of total = 5.61%.
Peak memory used = 118 Mbytes.
Simulation started at: 3:06:54 PM, Thur Feb 6, 2025, ended at: 3:06:55 PM, Thur Feb 6, 2025, with elapsed time (wall clock): 784 ms.
spectre completes with 0 errors, 0 warnings, and 5 notices.
