
Spectre (R) Circuit Simulator
Version 23.1.0.063 64bit -- 10 Jun 2023
Copyright (C) 1989-2023 Cadence Design Systems, Inc. All rights reserved worldwide. Cadence and Spectre are registered trademarks of Cadence Design Systems, Inc. All others are the property of their respective holders.

Includes RSA BSAFE(R) Cryptographic or Security Protocol Software from RSA Security, Inc.

User: leiyuan   Host: icetserver01   HostID: 7F0100   PID: 217591
Memory  available: 384.5078 GB  physical: 404.9105 GB
Linux   : CentOS Linux release 7 (Core)
CPU Type: Intel(R) Xeon(R) Gold 6230 CPU @ 2.10GHz
        Socket: Processors [Frequency] (Hyperthreaded Processor)
        0:       0 [799.9] ( 80 ),  4 [833.6] ( 84 ),  8 [799.9] ( 88 )
                12 [997.7] ( 92 ), 16 [799.9] ( 96 ), 20 [803.3] ( 100 )
                24 [799.9] ( 104 ), 28 [800.2] ( 108 ), 32 [805.4] ( 112 )
                36 [799.9] ( 116 ), 40 [800.1] ( 120 ), 44 [832.6] ( 124 )
                48 [799.9] ( 128 ), 52 [800.1] ( 132 ), 56 [800.1] ( 136 )
                60 [800.2] ( 140 ), 64 [799.9] ( 144 ), 68 [799.9] ( 148 )
                72 [800.1] ( 152 ), 76 [799.9] ( 156 )
        1:       1 [1196.2] ( 81 ),  5 [889.3] ( 85 ),  9 [1810.8] ( 89 )
                13 [799.9] ( 93 ), 17 [800.2] ( 97 ), 21 [799.9] ( 101 )
                25 [799.9] ( 105 ), 29 [799.9] ( 109 ), 33 [799.9] ( 113 )
                37 [799.8] ( 117 ), 41 [799.9] ( 121 ), 45 [799.9] ( 125 )
                49 [799.9] ( 129 ), 53 [799.9] ( 133 ), 57 [800.1] ( 137 )
                61 [799.9] ( 141 ), 65 [799.9] ( 145 ), 69 [891.8] ( 149 )
                73 [818.0] ( 153 ), 77 [799.9] ( 157 )
        2:       2 [800.1] ( 82 ),  6 [800.3] ( 86 ), 10 [799.9] ( 90 )
                14 [799.9] ( 94 ), 18 [800.1] ( 98 ), 22 [820.1] ( 102 )
                26 [799.9] ( 106 ), 30 [799.9] ( 110 ), 34 [800.1] ( 114 )
                38 [803.4] ( 118 ), 42 [799.9] ( 122 ), 46 [799.9] ( 126 )
                50 [800.1] ( 130 ), 54 [799.9] ( 134 ), 58 [799.9] ( 138 )
                62 [799.9] ( 142 ), 66 [800.2] ( 146 ), 70 [799.9] ( 150 )
                74 [800.1] ( 154 ), 78 [799.9] ( 158 )
        3:       3 [800.1] ( 83 ),  7 [800.1] ( 87 ), 11 [894.4] ( 91 )
                15 [800.3] ( 95 ), 19 [799.9] ( 99 ), 23 [800.1] ( 103 )
                27 [799.9] ( 107 ), 31 [800.1] ( 111 ), 35 [800.1] ( 115 )
                39 [799.9] ( 119 ), 43 [800.1] ( 123 ), 47 [799.9] ( 127 )
                51 [800.1] ( 131 ), 55 [799.9] ( 135 ), 59 [799.9] ( 139 )
                63 [799.9] ( 143 ), 67 [799.9] ( 147 ), 71 [799.9] ( 151 )
                75 [800.1] ( 155 ), 79 [799.9] ( 159 )
        
System load averages (1min, 5min, 15min) : 0.7 %, 0.8 %, 0.8 %
Hyperthreading is enabled
HPC is enabled


Simulating `./resources/smic018/simResult/test_diffamp1_tran1.scs' on icetserver01 at 12:30:30 PM, Fri Feb 7, 2025 (process id: 217591).
Current working directory: /data/icdesign/ams/ip_migration/users/leiyuan/ipmigration
Environment variable:
    SPECTRE_DEFAULTS=-E -f psfbin
Command line:
    /opt/icdesign/CAD/cadence/SPECTRE231/tools/bin/spectre -64  \
        ./resources/smic018/simResult/test_diffamp1_tran1.scs +escchars  \
        =log ./resources/smic018/simResult/psf/outtran1_spectre.out  \
        -format psfascii -raw ./resources/smic018/simResult/psf  \
        ++aps=moderate +mt=32 +lqtimeout 900 -maxw 5 -maxn 5 +logstatus

Licensing Information:
[12:30:30.287562] Configured Lic search path (22.01-s002): 5280@10.6.64.182:27001@10.6.126.11

Licensing Information:
[12:30:30.284240] Periodic Lic check successful

Loading /opt/icdesign/CAD/cadence/SPECTRE231/tools.lnx86/cmi/lib/64bit/5.0/libinfineon_sh.so ...
Loading /opt/icdesign/CAD/cadence/SPECTRE231/tools.lnx86/cmi/lib/64bit/5.0/libphilips_sh.so ...
Loading /opt/icdesign/CAD/cadence/SPECTRE231/tools.lnx86/cmi/lib/64bit/5.0/libsparam_sh.so ...
Loading /opt/icdesign/CAD/cadence/SPECTRE231/tools.lnx86/cmi/lib/64bit/5.0/libstmodels_sh.so ...
Reading file:  /data/icdesign/ams/ip_migration/users/leiyuan/ipmigration/resources/smic018/simResult/test_diffamp1_tran1.scs
Reading file:  /opt/icdesign/CAD/cadence/SPECTRE231/tools.lnx86/spectre/etc/configs/spectre.cfg
Reading file:  /usr/include/stdc-predef.h
Reading file:  /data/icdesign/ams/ip_migration/users/leiyuan/ipmigration/resources/smic018/models/spectre/ms018_v1p7_spe.lib
Reading file:  /data/icdesign/ams/ip_migration/users/leiyuan/ipmigration/resources/smic018/models/spectre/ms018_v1p7_spe.mdl
Reading file:  /home/shunqidai/Sizing/SizingDemoLinuxSpectre_integer_stdcell/smic018/ckt_netlist/twoStageOpamp2.scs
Time for NDB Parsing: CPU = 263.918 ms, elapsed = 766.474 ms.
Time accumulated: CPU = 466.745 ms, elapsed = 766.479 ms.
Peak resident memory used = 104 Mbytes.

Time for Elaboration: CPU = 38.206 ms, elapsed = 38.378 ms.
Time accumulated: CPU = 505.251 ms, elapsed = 805.157 ms.
Peak resident memory used = 110 Mbytes.


Notice from spectre during hierarchy flattening.
    The value 'psf' specified for the 'checklimitdest' option will no longer be supported in future releases. Use 'spectre -h' to see other recommended values for the 'checklimitdest' option.


Time for EDB Visiting: CPU = 1.808 ms, elapsed = 2.64215 ms.
Time accumulated: CPU = 507.272 ms, elapsed = 808.012 ms.
Peak resident memory used = 111 Mbytes.


Notice from spectre during initial setup.
    Multithreading is disabled due to the size of the design being too small.


Global user options:
            vabstol = 1e-06
            iabstol = 1e-12
               temp = 27
               gmin = 1e-12
             rforce = 1
           maxnotes = 5
           maxwarns = 5
             digits = 5
               cols = 80
             pivrel = 0.001
           sensfile = ../psf/sens.output
     checklimitdest = psf
               save = allpub
     subcktprobelvl = 2
             reltol = 0.001
               tnom = 27
             scalem = 1
              scale = 1e-06

Scoped user options:

Circuit inventory:
              nodes 9
            bsim3v3 8     
          capacitor 2     
            isource 1     
           resistor 1     
            vsource 3     

Analysis and control statement inventory:
               tran 1     

Output statements:
             .probe 0     
           .measure 0     
               save 0     


Notice from spectre during initial setup.
    Fast APS enabled.

Time for parsing: CPU = 7.734 ms, elapsed = 10.3192 ms.
Time accumulated: CPU = 515.191 ms, elapsed = 818.516 ms.
Peak resident memory used = 113 Mbytes.

~~~~~~~~~~~~~~~~~~~~~~
Pre-Simulation Summary
~~~~~~~~~~~~~~~~~~~~~~
   -   (Fast APS) Multi-threading. The recommended number of threads is 1, consider adding +mt=1 on command line.
~~~~~~~~~~~~~~~~~~~~~~

***************************************************
Transient Analysis `outtran1': time = (0 s -> 1 us)
***************************************************
DC simulation time: CPU = 1.724 ms, elapsed = 1.73092 ms.

Opening the PSFASCII file ./resources/smic018/simResult/psf/outtran1.tran.tran ...
Important parameter values:
    start = 0 s
    outputstart = 0 s
    stop = 1 us
    step = 1 ns
    maxstep = 20 ns
    ic = all
    useprevic = no
    skipdc = no
    reltol = 1e-03
    abstol(V) = 1 uV
    abstol(I) = 1 pA
    temp = 27 C
    tnom = 27 C
    tempeffects = all
    errpreset = moderate
    method = traponly
    lteratio = 3.5
    relref = sigglobal
    cmin = 0 F
    gmin = 1 pS
    rabsshort = 1 mOhm


Notice from spectre during transient analysis `outtran1'.
    Multithreading is disabled due to the size of the design being too small.


Output and IC/nodeset summary:
                 save   9       (current)
                 save   9       (voltage)

    outtran1: time = 26.39 ns    (2.64 %), step = 6.388 ns     (639 m%)
    outtran1: time = 80.07 ns    (8.01 %), step = 13.96 ns      (1.4 %)
    outtran1: time = 131.8 ns    (13.2 %), step = 18.54 ns     (1.85 %)
    outtran1: time = 191.8 ns    (19.2 %), step = 20 ns           (2 %)
    outtran1: time = 231.8 ns    (23.2 %), step = 20 ns           (2 %)
    outtran1: time = 291.8 ns    (29.2 %), step = 20 ns           (2 %)
    outtran1: time = 331.8 ns    (33.2 %), step = 20 ns           (2 %)

Notice from spectre at time = 371.768 ns during transient analysis `outtran1'.
    Found trapezoidal ringing on node Xopamp.net3.
Notice from spectre at time = 391.768 ns during transient analysis `outtran1'.
    Found trapezoidal ringing on node Xopamp.net3.

    outtran1: time = 391.8 ns    (39.2 %), step = 20 ns           (2 %)

Notice from spectre at time = 411.768 ns during transient analysis `outtran1'.
    Found trapezoidal ringing on node Xopamp.net3.
Notice from spectre at time = 431.768 ns during transient analysis `outtran1'.
    Found trapezoidal ringing on node Xopamp.net3.

    outtran1: time = 431.8 ns    (43.2 %), step = 20 ns           (2 %)

Notice from spectre at time = 451.768 ns during transient analysis `outtran1'.
    Found trapezoidal ringing on node Xopamp.net3.
        Further occurrences of this notice will be suppressed.

    outtran1: time = 491.8 ns    (49.2 %), step = 20 ns           (2 %)
    outtran1: time = 531.8 ns    (53.2 %), step = 20 ns           (2 %)
    outtran1: time = 591.8 ns    (59.2 %), step = 20 ns           (2 %)
    outtran1: time = 631.8 ns    (63.2 %), step = 20 ns           (2 %)
    outtran1: time = 691.8 ns    (69.2 %), step = 20 ns           (2 %)
    outtran1: time = 731.8 ns    (73.2 %), step = 20 ns           (2 %)
    outtran1: time = 791.8 ns    (79.2 %), step = 20 ns           (2 %)
    outtran1: time = 831.8 ns    (83.2 %), step = 20 ns           (2 %)
    outtran1: time = 891.8 ns    (89.2 %), step = 20 ns           (2 %)
    outtran1: time = 931.8 ns    (93.2 %), step = 20 ns           (2 %)
    outtran1: time = 985.9 ns    (98.6 %), step = 14.12 ns     (1.41 %)
Number of accepted tran steps =             71

Notice from spectre during transient analysis `outtran1'.
    Trapezoidal ringing is detected during tran analysis.
        Please use method=trap for better results and performance.


Maximum value achieved for any signal of each quantity: 
V: V(dd) = 3.3 V
I: I(vdd:p) = 93.24 uA
If your circuit contains signals of the same quantity that are vastly different in size (such as high voltage circuitry combined with low voltage control circuitry), you should consider specifying global option `bin_relref=yes'.

~~~~~~~~~~~~~~~~~~~~~~~~~~~~~~~~~
Post-Transient Simulation Summary
~~~~~~~~~~~~~~~~~~~~~~~~~~~~~~~~~
~~~~~~~~~~~~~~~~~~~~~~~~~~~~~~~~~


During simulation, the CPU load for active processors is :
         0 (1.4 %)       3 (30.6 %)      4 (1.4 %)       5 (1.4 %)
         8 (1.4 %)      10 (2.8 %)      13 (12.5 %)     25 (1.4 %)
        26 (1.4 %)      32 (1.4 %)      38 (1.4 %)      43 (1.4 %)
        48 (2.8 %)      53 (1.4 %)      65 (1.4 %)      69 (1.4 %)
        77 (1.4 %)      84 (1.4 %)      85 (14.1 %)     86 (12.7 %)
        95 (1.4 %)      99 (2.8 %)      103 (1.4 %)     106 (5.5 %)
        107 (2.8 %)     111 (2.8 %)     115 (4.1 %)     119 (4.2 %)
        123 (1.4 %)     127 (5.6 %)     153 (1.4 %)     
        Total: 128.2%
Initial condition solution time: CPU = 1.828 ms, elapsed = 1.83487 ms.
Intrinsic tran analysis time:    CPU = 17.94 ms, elapsed = 20.469 ms.
Total time required for tran analysis `outtran1': CPU = 22.222 ms, elapsed = 25.6159 ms, util. = 86.8%.
Time accumulated: CPU = 545.794 ms, elapsed = 853.714 ms.
Peak resident memory used = 116 Mbytes.


Notice from spectre.
    28 notices suppressed.

Licensing Information:
Lic Summary:
[12:30:31.177081] Cdslmd servers:5280@10.6.64.182:27001@10.6.126.11
[12:30:31.177130] Feature usage summary:
[12:30:31.177131] Virtuoso_Multi_mode_Simulation


Aggregate audit (12:30:31 PM, Fri Feb 7, 2025):
Time used: CPU = 548 ms, elapsed = 857 ms, util. = 64%.
Time spent in licensing: elapsed = 48.8 ms, percentage of total = 5.7%.
Peak memory used = 116 Mbytes.
Simulation started at: 12:30:30 PM, Fri Feb 7, 2025, ended at: 12:30:31 PM, Fri Feb 7, 2025, with elapsed time (wall clock): 857 ms.
spectre completes with 0 errors, 0 warnings, and 12 notices.
