
Spectre (R) Circuit Simulator
Version 23.1.0.063 64bit -- 10 Jun 2023
Copyright (C) 1989-2023 Cadence Design Systems, Inc. All rights reserved worldwide. Cadence and Spectre are registered trademarks of Cadence Design Systems, Inc. All others are the property of their respective holders.

Includes RSA BSAFE(R) Cryptographic or Security Protocol Software from RSA Security, Inc.

User: leiyuan   Host: icetserver01   HostID: 7F0100   PID: 24072
Memory  available: 385.7451 GB  physical: 404.9105 GB
Linux   : CentOS Linux release 7 (Core)
CPU Type: Intel(R) Xeon(R) Gold 6230 CPU @ 2.10GHz
        Socket: Processors [Frequency] (Hyperthreaded Processor)
        0:       0 [814.5] ( 80 ),  4 [2503.7] ( 84 ),  8 [805.4] ( 88 )
                12 [799.9] ( 92 ), 16 [800.1] ( 96 ), 20 [799.9] ( 100 )
                24 [799.9] ( 104 ), 28 [800.1] ( 108 ), 32 [800.1] ( 112 )
                36 [799.9] ( 116 ), 40 [799.9] ( 120 ), 44 [914.4] ( 124 )
                48 [829.8] ( 128 ), 52 [800.1] ( 132 ), 56 [799.9] ( 136 )
                60 [800.1] ( 140 ), 64 [799.9] ( 144 ), 68 [800.2] ( 148 )
                72 [867.0] ( 152 ), 76 [799.9] ( 156 )
        1:       1 [800.1] ( 81 ),  5 [1561.9] ( 85 ),  9 [800.6] ( 89 )
                13 [799.9] ( 93 ), 17 [799.9] ( 97 ), 21 [800.1] ( 101 )
                25 [799.9] ( 105 ), 29 [800.1] ( 109 ), 33 [799.9] ( 113 )
                37 [799.9] ( 117 ), 41 [800.1] ( 121 ), 45 [800.1] ( 125 )
                49 [800.1] ( 129 ), 53 [799.9] ( 133 ), 57 [800.1] ( 137 )
                61 [799.9] ( 141 ), 65 [800.2] ( 145 ), 69 [799.9] ( 149 )
                73 [799.9] ( 153 ), 77 [882.9] ( 157 )
        2:       2 [3692.3] ( 82 ),  6 [1300.2] ( 86 ), 10 [968.5] ( 90 )
                14 [813.9] ( 94 ), 18 [896.1] ( 98 ), 22 [800.1] ( 102 )
                26 [799.9] ( 106 ), 30 [800.1] ( 110 ), 34 [799.9] ( 114 )
                38 [814.5] ( 118 ), 42 [800.1] ( 122 ), 46 [804.9] ( 126 )
                50 [801.9] ( 130 ), 54 [799.9] ( 134 ), 58 [800.1] ( 138 )
                62 [799.9] ( 142 ), 66 [800.1] ( 146 ), 70 [799.9] ( 150 )
                74 [800.1] ( 154 ), 78 [800.1] ( 158 )
        3:       3 [976.0] ( 83 ),  7 [800.2] ( 87 ), 11 [3899.9] ( 91 )
                15 [799.9] ( 95 ), 19 [800.1] ( 99 ), 23 [799.9] ( 103 )
                27 [872.0] ( 107 ), 31 [831.6] ( 111 ), 35 [800.1] ( 115 )
                39 [800.1] ( 119 ), 43 [805.2] ( 123 ), 47 [799.9] ( 127 )
                51 [799.9] ( 131 ), 55 [800.2] ( 135 ), 59 [800.1] ( 139 )
                63 [800.2] ( 143 ), 67 [799.9] ( 147 ), 71 [800.1] ( 151 )
                75 [800.1] ( 155 ), 79 [799.9] ( 159 )
        
System load averages (1min, 5min, 15min) : 1.1 %, 1.1 %, 0.9 %
Hyperthreading is enabled
HPC is enabled


Simulating `./resources/smic018/simResult/test_diffamp1_tran1.scs' on icetserver01 at 3:06:49 PM, Thur Feb 6, 2025 (process id: 24072).
Current working directory: /data/icdesign/ams/ip_migration/users/leiyuan/ipmigration
Environment variable:
    SPECTRE_DEFAULTS=-E -f psfbin
Command line:
    /opt/icdesign/CAD/cadence/SPECTRE231/tools/bin/spectre -64  \
        ./resources/smic018/simResult/test_diffamp1_tran1.scs +escchars  \
        =log ./resources/smic018/simResult/psf/outtran1_spectre.out  \
        -format psfascii -raw ./resources/smic018/simResult/psf  \
        ++aps=moderate +mt=32 +lqtimeout 900 -maxw 5 -maxn 5 +logstatus

Licensing Information:
[15:06:50.287626] Configured Lic search path (22.01-s002): 5280@10.6.64.182:27001@10.6.126.11

Licensing Information:
[15:06:50.350290] Periodic Lic check successful

Loading /opt/icdesign/CAD/cadence/SPECTRE231/tools.lnx86/cmi/lib/64bit/5.0/libinfineon_sh.so ...
Loading /opt/icdesign/CAD/cadence/SPECTRE231/tools.lnx86/cmi/lib/64bit/5.0/libphilips_sh.so ...
Loading /opt/icdesign/CAD/cadence/SPECTRE231/tools.lnx86/cmi/lib/64bit/5.0/libsparam_sh.so ...
Loading /opt/icdesign/CAD/cadence/SPECTRE231/tools.lnx86/cmi/lib/64bit/5.0/libstmodels_sh.so ...
Reading file:  /data/icdesign/ams/ip_migration/users/leiyuan/ipmigration/resources/smic018/simResult/test_diffamp1_tran1.scs
Reading file:  /opt/icdesign/CAD/cadence/SPECTRE231/tools.lnx86/spectre/etc/configs/spectre.cfg
Reading file:  /usr/include/stdc-predef.h
Reading file:  /data/icdesign/ams/ip_migration/users/leiyuan/ipmigration/resources/smic018/models/spectre/ms018_v1p7_spe.lib
Reading file:  /data/icdesign/ams/ip_migration/users/leiyuan/ipmigration/resources/smic018/models/spectre/ms018_v1p7_spe.mdl
Reading file:  /home/shunqidai/Sizing/SizingDemoLinuxSpectre_integer_stdcell/smic018/ckt_netlist/twoStageOpamp2.scs
Time for NDB Parsing: CPU = 244.039 ms, elapsed = 769.505 ms.
Time accumulated: CPU = 442.837 ms, elapsed = 769.511 ms.
Peak resident memory used = 106 Mbytes.

Time for Elaboration: CPU = 38.543 ms, elapsed = 38.718 ms.
Time accumulated: CPU = 481.673 ms, elapsed = 808.519 ms.
Peak resident memory used = 112 Mbytes.


Notice from spectre during hierarchy flattening.
    The value 'psf' specified for the 'checklimitdest' option will no longer be supported in future releases. Use 'spectre -h' to see other recommended values for the 'checklimitdest' option.


Time for EDB Visiting: CPU = 1.712 ms, elapsed = 2.38585 ms.
Time accumulated: CPU = 483.601 ms, elapsed = 811.12 ms.
Peak resident memory used = 113 Mbytes.


Notice from spectre during initial setup.
    Multithreading is disabled due to the size of the design being too small.


Global user options:
            vabstol = 1e-06
            iabstol = 1e-12
               temp = 27
               gmin = 1e-12
             rforce = 1
           maxnotes = 5
           maxwarns = 5
             digits = 5
               cols = 80
             pivrel = 0.001
           sensfile = ../psf/sens.output
     checklimitdest = psf
               save = allpub
     subcktprobelvl = 2
             reltol = 0.001
               tnom = 27
             scalem = 1
              scale = 1e-06

Scoped user options:

Circuit inventory:
              nodes 9
            bsim3v3 8     
          capacitor 2     
            isource 1     
           resistor 1     
            vsource 3     

Analysis and control statement inventory:
               tran 1     

Output statements:
             .probe 0     
           .measure 0     
               save 0     


Notice from spectre during initial setup.
    Fast APS enabled.

Time for parsing: CPU = 7.347 ms, elapsed = 9.73606 ms.
Time accumulated: CPU = 491.163 ms, elapsed = 821.39 ms.
Peak resident memory used = 115 Mbytes.

~~~~~~~~~~~~~~~~~~~~~~
Pre-Simulation Summary
~~~~~~~~~~~~~~~~~~~~~~
   -   (Fast APS) Multi-threading. The recommended number of threads is 1, consider adding +mt=1 on command line.
~~~~~~~~~~~~~~~~~~~~~~

***************************************************
Transient Analysis `outtran1': time = (0 s -> 1 us)
***************************************************
DC simulation time: CPU = 1.698 ms, elapsed = 1.70302 ms.

Opening the PSFASCII file ./resources/smic018/simResult/psf/outtran1.tran.tran ...
Important parameter values:
    start = 0 s
    outputstart = 0 s
    stop = 1 us
    step = 1 ns
    maxstep = 20 ns
    ic = all
    useprevic = no
    skipdc = no
    reltol = 1e-03
    abstol(V) = 1 uV
    abstol(I) = 1 pA
    temp = 27 C
    tnom = 27 C
    tempeffects = all
    errpreset = moderate
    method = traponly
    lteratio = 3.5
    relref = sigglobal
    cmin = 0 F
    gmin = 1 pS
    rabsshort = 1 mOhm


Notice from spectre during transient analysis `outtran1'.
    Multithreading is disabled due to the size of the design being too small.


Output and IC/nodeset summary:
                 save   9       (current)
                 save   9       (voltage)

    outtran1: time = 26.55 ns    (2.66 %), step = 4.368 ns     (437 m%)
    outtran1: time = 75.82 ns    (7.58 %), step = 7.571 ns     (757 m%)
    outtran1: time = 129.8 ns      (13 %), step = 19.93 ns     (1.99 %)
    outtran1: time = 189.8 ns      (19 %), step = 20 ns           (2 %)
    outtran1: time = 229.8 ns      (23 %), step = 20 ns           (2 %)
    outtran1: time = 289.8 ns      (29 %), step = 20 ns           (2 %)

Notice from spectre at time = 309.834 ns during transient analysis `outtran1'.
    Found trapezoidal ringing on node Xopamp.net3.

    outtran1: time = 329.8 ns      (33 %), step = 20 ns           (2 %)

Notice from spectre at time = 349.834 ns during transient analysis `outtran1'.
    Found trapezoidal ringing on node Xopamp.net3.
Notice from spectre at time = 369.834 ns during transient analysis `outtran1'.
    Found trapezoidal ringing on node Xopamp.net3.
Notice from spectre at time = 389.834 ns during transient analysis `outtran1'.
    Found trapezoidal ringing on node Xopamp.net3.

    outtran1: time = 389.8 ns      (39 %), step = 20 ns           (2 %)

Notice from spectre at time = 409.834 ns during transient analysis `outtran1'.
    Found trapezoidal ringing on node Xopamp.net3.
        Further occurrences of this notice will be suppressed.

    outtran1: time = 429.8 ns      (43 %), step = 20 ns           (2 %)
    outtran1: time = 489.8 ns      (49 %), step = 20 ns           (2 %)
    outtran1: time = 529.8 ns      (53 %), step = 20 ns           (2 %)
    outtran1: time = 589.8 ns      (59 %), step = 20 ns           (2 %)
    outtran1: time = 629.8 ns      (63 %), step = 20 ns           (2 %)
    outtran1: time = 689.8 ns      (69 %), step = 20 ns           (2 %)
    outtran1: time = 729.8 ns      (73 %), step = 20 ns           (2 %)
    outtran1: time = 789.8 ns      (79 %), step = 20 ns           (2 %)
    outtran1: time = 829.8 ns      (83 %), step = 20 ns           (2 %)
    outtran1: time = 889.8 ns      (89 %), step = 20 ns           (2 %)
    outtran1: time = 929.8 ns      (93 %), step = 20 ns           (2 %)
    outtran1: time = 984.9 ns    (98.5 %), step = 15.08 ns     (1.51 %)
Number of accepted tran steps =             74

Notice from spectre during transient analysis `outtran1'.
    Trapezoidal ringing is detected during tran analysis.
        Please use method=trap for better results and performance.


Maximum value achieved for any signal of each quantity: 
V: V(dd) = 3.3 V
I: I(vdd:p) = 58.47 uA
If your circuit contains signals of the same quantity that are vastly different in size (such as high voltage circuitry combined with low voltage control circuitry), you should consider specifying global option `bin_relref=yes'.

~~~~~~~~~~~~~~~~~~~~~~~~~~~~~~~~~
Post-Transient Simulation Summary
~~~~~~~~~~~~~~~~~~~~~~~~~~~~~~~~~
~~~~~~~~~~~~~~~~~~~~~~~~~~~~~~~~~


During simulation, the CPU load for active processors is :
         1 (28.8 %)      8 (13.9 %)     11 (100.0 %)    12 (1.4 %)
        13 (1.4 %)      21 (1.4 %)      25 (1.4 %)      29 (1.4 %)
        34 (1.4 %)      35 (1.4 %)      37 (1.4 %)      41 (1.4 %)
        42 (1.4 %)      45 (1.4 %)      46 (1.4 %)      48 (1.4 %)
        57 (1.4 %)      59 (1.4 %)      72 (1.4 %)      78 (1.4 %)
        84 (17.8 %)     86 (1.4 %)      88 (1.4 %)      93 (1.4 %)
        97 (1.4 %)      105 (1.4 %)     109 (1.4 %)     113 (2.8 %)
        117 (2.7 %)     121 (1.4 %)     125 (2.7 %)     129 (5.5 %)
        Total: 207.2%
Initial condition solution time: CPU = 1.801 ms, elapsed = 1.80793 ms.
Intrinsic tran analysis time:    CPU = 17.428 ms, elapsed = 20.6749 ms.
Total time required for tran analysis `outtran1': CPU = 21.757 ms, elapsed = 26.001 ms, util. = 83.7%.
Time accumulated: CPU = 521.28 ms, elapsed = 857.209 ms.
Peak resident memory used = 118 Mbytes.


Notice from spectre.
    21 notices suppressed.

Licensing Information:
Lic Summary:
[15:06:50.182624] Cdslmd servers:5280@10.6.64.182:27001@10.6.126.11
[15:06:50.182673] Feature usage summary:
[15:06:50.182674] Virtuoso_Multi_mode_Simulation


Aggregate audit (3:06:50 PM, Thur Feb 6, 2025):
Time used: CPU = 524 ms, elapsed = 861 ms, util. = 60.9%.
Time spent in licensing: elapsed = 247 ms, percentage of total = 28.6%.
Peak memory used = 119 Mbytes.
Simulation started at: 3:06:49 PM, Thur Feb 6, 2025, ended at: 3:06:50 PM, Thur Feb 6, 2025, with elapsed time (wall clock): 861 ms.
spectre completes with 0 errors, 0 warnings, and 12 notices.
