
Spectre (R) Circuit Simulator
Version 23.1.0.063 64bit -- 10 Jun 2023
Copyright (C) 1989-2023 Cadence Design Systems, Inc. All rights reserved worldwide. Cadence and Spectre are registered trademarks of Cadence Design Systems, Inc. All others are the property of their respective holders.

Includes RSA BSAFE(R) Cryptographic or Security Protocol Software from RSA Security, Inc.

User: leiyuan   Host: icetserver01   HostID: 7F0100   PID: 24117
Memory  available: 385.7380 GB  physical: 404.9105 GB
Linux   : CentOS Linux release 7 (Core)
CPU Type: Intel(R) Xeon(R) Gold 6230 CPU @ 2.10GHz
        Socket: Processors [Frequency] (Hyperthreaded Processor)
        0:       0 [799.9] ( 80 ),  4 [3540.9] ( 84 ),  8 [910.9] ( 88 )
                12 [800.1] ( 92 ), 16 [799.9] ( 96 ), 20 [845.8] ( 100 )
                24 [803.9] ( 104 ), 28 [800.1] ( 108 ), 32 [900.9] ( 112 )
                36 [799.9] ( 116 ), 40 [800.2] ( 120 ), 44 [914.4] ( 124 )
                48 [960.4] ( 128 ), 52 [800.1] ( 132 ), 56 [800.1] ( 136 )
                60 [899.1] ( 140 ), 64 [824.0] ( 144 ), 68 [800.1] ( 148 )
                72 [800.1] ( 152 ), 76 [801.3] ( 156 )
        1:       1 [1493.0] ( 81 ),  5 [996.3] ( 85 ),  9 [1738.2] ( 89 )
                13 [827.9] ( 93 ), 17 [899.9] ( 97 ), 21 [799.9] ( 101 )
                25 [894.4] ( 105 ), 29 [800.1] ( 109 ), 33 [799.9] ( 113 )
                37 [997.3] ( 117 ), 41 [799.9] ( 121 ), 45 [897.3] ( 125 )
                49 [799.9] ( 129 ), 53 [817.9] ( 133 ), 57 [847.9] ( 137 )
                61 [800.1] ( 141 ), 65 [897.5] ( 145 ), 69 [897.5] ( 149 )
                73 [895.4] ( 153 ), 77 [800.1] ( 157 )
        2:       2 [3692.3] ( 82 ),  6 [852.4] ( 86 ), 10 [801.5] ( 90 )
                14 [799.9] ( 94 ), 18 [799.9] ( 98 ), 22 [800.2] ( 102 )
                26 [799.9] ( 106 ), 30 [799.9] ( 110 ), 34 [799.9] ( 114 )
                38 [799.9] ( 118 ), 42 [826.6] ( 122 ), 46 [799.9] ( 126 )
                50 [799.9] ( 130 ), 54 [800.1] ( 134 ), 58 [800.1] ( 138 )
                62 [799.9] ( 142 ), 66 [800.1] ( 146 ), 70 [799.9] ( 150 )
                74 [799.9] ( 154 ), 78 [800.1] ( 158 )
        3:       3 [976.0] ( 83 ),  7 [850.0] ( 87 ), 11 [893.5] ( 91 )
                15 [842.7] ( 95 ), 19 [799.9] ( 99 ), 23 [800.1] ( 103 )
                27 [799.9] ( 107 ), 31 [845.2] ( 111 ), 35 [799.9] ( 115 )
                39 [889.9] ( 119 ), 43 [805.2] ( 123 ), 47 [800.1] ( 127 )
                51 [800.1] ( 131 ), 55 [800.2] ( 135 ), 59 [800.2] ( 139 )
                63 [800.2] ( 143 ), 67 [799.9] ( 147 ), 71 [799.9] ( 151 )
                75 [800.1] ( 155 ), 79 [800.1] ( 159 )
        
System load averages (1min, 5min, 15min) : 1.1 %, 1.1 %, 0.9 %
Hyperthreading is enabled
HPC is enabled


Simulating `./resources/smic018/simResult/test_diffamp1_tran2.scs' on icetserver01 at 3:06:51 PM, Thur Feb 6, 2025 (process id: 24117).
Current working directory: /data/icdesign/ams/ip_migration/users/leiyuan/ipmigration
Environment variable:
    SPECTRE_DEFAULTS=-E -f psfbin
Command line:
    /opt/icdesign/CAD/cadence/SPECTRE231/tools/bin/spectre -64  \
        ./resources/smic018/simResult/test_diffamp1_tran2.scs +escchars  \
        =log ./resources/smic018/simResult/psf/outtran2_spectre.out  \
        -format psfascii -raw ./resources/smic018/simResult/psf  \
        ++aps=moderate +mt=32 +lqtimeout 900 -maxw 5 -maxn 5 +logstatus

Licensing Information:
[15:06:51.287634] Configured Lic search path (22.01-s002): 5280@10.6.64.182:27001@10.6.126.11

Licensing Information:
[15:06:51.018713] Periodic Lic check successful

Loading /opt/icdesign/CAD/cadence/SPECTRE231/tools.lnx86/cmi/lib/64bit/5.0/libinfineon_sh.so ...
Loading /opt/icdesign/CAD/cadence/SPECTRE231/tools.lnx86/cmi/lib/64bit/5.0/libphilips_sh.so ...
Loading /opt/icdesign/CAD/cadence/SPECTRE231/tools.lnx86/cmi/lib/64bit/5.0/libsparam_sh.so ...
Loading /opt/icdesign/CAD/cadence/SPECTRE231/tools.lnx86/cmi/lib/64bit/5.0/libstmodels_sh.so ...
Reading file:  /data/icdesign/ams/ip_migration/users/leiyuan/ipmigration/resources/smic018/simResult/test_diffamp1_tran2.scs
Reading file:  /opt/icdesign/CAD/cadence/SPECTRE231/tools.lnx86/spectre/etc/configs/spectre.cfg
Reading file:  /usr/include/stdc-predef.h
Reading file:  /data/icdesign/ams/ip_migration/users/leiyuan/ipmigration/resources/smic018/models/spectre/ms018_v1p7_spe.lib
Reading file:  /data/icdesign/ams/ip_migration/users/leiyuan/ipmigration/resources/smic018/models/spectre/ms018_v1p7_spe.mdl
Reading file:  /home/shunqidai/Sizing/SizingDemoLinuxSpectre_integer_stdcell/smic018/ckt_netlist/twoStageOpamp2.scs
Time for NDB Parsing: CPU = 246.26 ms, elapsed = 639.045 ms.
Time accumulated: CPU = 443.05 ms, elapsed = 639.05 ms.
Peak resident memory used = 112 Mbytes.

Time for Elaboration: CPU = 40.86 ms, elapsed = 41.033 ms.
Time accumulated: CPU = 484.218 ms, elapsed = 680.389 ms.
Peak resident memory used = 118 Mbytes.


Notice from spectre during hierarchy flattening.
    The value 'psf' specified for the 'checklimitdest' option will no longer be supported in future releases. Use 'spectre -h' to see other recommended values for the 'checklimitdest' option.


Time for EDB Visiting: CPU = 1.767 ms, elapsed = 2.36893 ms.
Time accumulated: CPU = 486.228 ms, elapsed = 683.002 ms.
Peak resident memory used = 119 Mbytes.


Notice from spectre during initial setup.
    Multithreading is disabled due to the size of the design being too small.


Global user options:
            vabstol = 1e-06
            iabstol = 1e-12
               temp = 27
               gmin = 1e-12
             rforce = 1
           maxnotes = 5
           maxwarns = 5
             digits = 5
               cols = 80
             pivrel = 0.001
           sensfile = ../psf/sens.output
     checklimitdest = psf
               save = allpub
     subcktprobelvl = 2
             reltol = 0.001
               tnom = 27
             scalem = 1
              scale = 1e-06

Scoped user options:

Circuit inventory:
              nodes 9
            bsim3v3 8     
          capacitor 2     
            isource 1     
           resistor 1     
            vsource 3     

Analysis and control statement inventory:
               tran 1     

Output statements:
             .probe 0     
           .measure 0     
               save 0     


Notice from spectre during initial setup.
    Fast APS enabled.

Time for parsing: CPU = 7.231 ms, elapsed = 9.93204 ms.
Time accumulated: CPU = 493.675 ms, elapsed = 693.574 ms.
Peak resident memory used = 121 Mbytes.

~~~~~~~~~~~~~~~~~~~~~~
Pre-Simulation Summary
~~~~~~~~~~~~~~~~~~~~~~
   -   (Fast APS) Multi-threading. The recommended number of threads is 1, consider adding +mt=1 on command line.
~~~~~~~~~~~~~~~~~~~~~~

***************************************************
Transient Analysis `outtran2': time = (0 s -> 1 us)
***************************************************
DC simulation time: CPU = 1.588 ms, elapsed = 1.59311 ms.

Opening the PSFASCII file ./resources/smic018/simResult/psf/outtran2.tran.tran ...
Important parameter values:
    start = 0 s
    outputstart = 0 s
    stop = 1 us
    step = 1 ns
    maxstep = 20 ns
    ic = all
    useprevic = no
    skipdc = no
    reltol = 1e-03
    abstol(V) = 1 uV
    abstol(I) = 1 pA
    temp = 27 C
    tnom = 27 C
    tempeffects = all
    errpreset = moderate
    method = traponly
    lteratio = 3.5
    relref = sigglobal
    cmin = 0 F
    gmin = 1 pS
    rabsshort = 1 mOhm


Notice from spectre during transient analysis `outtran2'.
    Multithreading is disabled due to the size of the design being too small.


Output and IC/nodeset summary:
                 save   9       (current)
                 save   9       (voltage)

    outtran2: time = 33.66 ns    (3.37 %), step = 8.831 ns     (883 m%)
    outtran2: time = 83.84 ns    (8.38 %), step = 20 ns           (2 %)
    outtran2: time = 126.4 ns    (12.6 %), step = 3.842 ns     (384 m%)
    outtran2: time = 175.3 ns    (17.5 %), step = 13.9 ns      (1.39 %)
    outtran2: time = 237.6 ns    (23.8 %), step = 19.77 ns     (1.98 %)
    outtran2: time = 277.6 ns    (27.8 %), step = 20 ns           (2 %)
    outtran2: time = 337.6 ns    (33.8 %), step = 20 ns           (2 %)
    outtran2: time = 377.6 ns    (37.8 %), step = 20 ns           (2 %)
    outtran2: time = 437.6 ns    (43.8 %), step = 20 ns           (2 %)
    outtran2: time = 477.6 ns    (47.8 %), step = 20 ns           (2 %)
    outtran2: time = 537.6 ns    (53.8 %), step = 20 ns           (2 %)
    outtran2: time = 577.6 ns    (57.8 %), step = 20 ns           (2 %)

Notice from spectre at time = 637.647 ns during transient analysis `outtran2'.
    Found trapezoidal ringing on node vdd:p.

    outtran2: time = 637.6 ns    (63.8 %), step = 20 ns           (2 %)

Notice from spectre at time = 657.647 ns during transient analysis `outtran2'.
    Found trapezoidal ringing on node vdd:p.
Notice from spectre at time = 677.647 ns during transient analysis `outtran2'.
    Found trapezoidal ringing on node vdd:p.

    outtran2: time = 677.6 ns    (67.8 %), step = 20 ns           (2 %)

Notice from spectre at time = 697.647 ns during transient analysis `outtran2'.
    Found trapezoidal ringing on node vdd:p.
Notice from spectre at time = 717.647 ns during transient analysis `outtran2'.
    Found trapezoidal ringing on node vdd:p.
        Further occurrences of this notice will be suppressed.

    outtran2: time = 737.6 ns    (73.8 %), step = 20 ns           (2 %)
    outtran2: time = 777.6 ns    (77.8 %), step = 20 ns           (2 %)
    outtran2: time = 837.6 ns    (83.8 %), step = 20 ns           (2 %)
    outtran2: time = 877.6 ns    (87.8 %), step = 20 ns           (2 %)
    outtran2: time = 937.6 ns    (93.8 %), step = 20 ns           (2 %)
    outtran2: time = 977.6 ns    (97.8 %), step = 20 ns           (2 %)
Number of accepted tran steps =             76

Notice from spectre during transient analysis `outtran2'.
    Trapezoidal ringing is detected during tran analysis.
        Please use method=trap for better results and performance.


Maximum value achieved for any signal of each quantity: 
V: V(dd) = 3.3 V
I: I(vdd:p) = 54.04 uA
If your circuit contains signals of the same quantity that are vastly different in size (such as high voltage circuitry combined with low voltage control circuitry), you should consider specifying global option `bin_relref=yes'.

~~~~~~~~~~~~~~~~~~~~~~~~~~~~~~~~~
Post-Transient Simulation Summary
~~~~~~~~~~~~~~~~~~~~~~~~~~~~~~~~~
~~~~~~~~~~~~~~~~~~~~~~~~~~~~~~~~~


During simulation, the CPU load for active processors is :
         1 (31.1 %)      4 (4.0 %)       8 (13.7 %)     11 (14.9 %)
        12 (2.7 %)      13 (2.7 %)      16 (2.7 %)      18 (1.3 %)
        19 (1.4 %)      24 (1.3 %)      25 (1.4 %)      27 (1.4 %)
        29 (4.1 %)      33 (1.4 %)      36 (1.4 %)      37 (1.4 %)
        49 (2.7 %)      50 (1.4 %)      57 (1.4 %)      59 (1.4 %)
        64 (1.4 %)      67 (1.4 %)      77 (1.4 %)      84 (11.0 %)
        85 (1.4 %)      86 (35.6 %)     87 (47.2 %)     89 (4.1 %)
        93 (1.4 %)      99 (2.7 %)      101 (2.7 %)     105 (2.7 %)
        109 (4.0 %)     113 (4.1 %)     117 (2.7 %)     121 (5.4 %)
        Total: 222.4%
Initial condition solution time: CPU = 1.693 ms, elapsed = 1.69992 ms.
Intrinsic tran analysis time:    CPU = 18.686 ms, elapsed = 153.902 ms.
Total time required for tran analysis `outtran2': CPU = 22.654 ms, elapsed = 158.796 ms, util. = 14.3%.
Time accumulated: CPU = 528.514 ms, elapsed = 866.356 ms.
Peak resident memory used = 124 Mbytes.


Notice from spectre.
    15 notices suppressed.

Licensing Information:
Lic Summary:
[15:06:52.057418] Cdslmd servers:5280@10.6.64.182:27001@10.6.126.11
[15:06:52.057499] Feature usage summary:
[15:06:52.057499] Virtuoso_Multi_mode_Simulation


Aggregate audit (3:06:52 PM, Thur Feb 6, 2025):
Time used: CPU = 532 ms, elapsed = 871 ms, util. = 61.1%.
Time spent in licensing: elapsed = 47.8 ms, percentage of total = 5.49%.
Peak memory used = 125 Mbytes.
Simulation started at: 3:06:51 PM, Thur Feb 6, 2025, ended at: 3:06:52 PM, Thur Feb 6, 2025, with elapsed time (wall clock): 871 ms.
spectre completes with 0 errors, 0 warnings, and 12 notices.
