
Spectre (R) Circuit Simulator
Version 23.1.0.063 64bit -- 10 Jun 2023
Copyright (C) 1989-2023 Cadence Design Systems, Inc. All rights reserved worldwide. Cadence and Spectre are registered trademarks of Cadence Design Systems, Inc. All others are the property of their respective holders.

Includes RSA BSAFE(R) Cryptographic or Security Protocol Software from RSA Security, Inc.

User: leiyuan   Host: icetserver01   HostID: 7F0100   PID: 217636
Memory  available: 384.5062 GB  physical: 404.9105 GB
Linux   : CentOS Linux release 7 (Core)
CPU Type: Intel(R) Xeon(R) Gold 6230 CPU @ 2.10GHz
        Socket: Processors [Frequency] (Hyperthreaded Processor)
        0:       0 [862.9] ( 80 ),  4 [799.9] ( 84 ),  8 [799.9] ( 88 )
                12 [841.8] ( 92 ), 16 [800.1] ( 96 ), 20 [836.1] ( 100 )
                24 [799.9] ( 104 ), 28 [800.1] ( 108 ), 32 [820.7] ( 112 )
                36 [892.6] ( 116 ), 40 [800.1] ( 120 ), 44 [832.6] ( 124 )
                48 [799.9] ( 128 ), 52 [799.9] ( 132 ), 56 [800.1] ( 136 )
                60 [800.1] ( 140 ), 64 [799.9] ( 144 ), 68 [799.9] ( 148 )
                72 [802.8] ( 152 ), 76 [799.9] ( 156 )
        1:       1 [1196.2] ( 81 ),  5 [807.9] ( 85 ),  9 [1286.2] ( 89 )
                13 [800.1] ( 93 ), 17 [800.1] ( 97 ), 21 [799.9] ( 101 )
                25 [800.1] ( 105 ), 29 [799.9] ( 109 ), 33 [799.9] ( 113 )
                37 [799.9] ( 117 ), 41 [799.9] ( 121 ), 45 [799.9] ( 125 )
                49 [799.9] ( 129 ), 53 [846.6] ( 133 ), 57 [800.1] ( 137 )
                61 [799.9] ( 141 ), 65 [799.9] ( 145 ), 69 [881.2] ( 149 )
                73 [818.0] ( 153 ), 77 [799.9] ( 157 )
        2:       2 [800.1] ( 82 ),  6 [839.2] ( 86 ), 10 [882.0] ( 90 )
                14 [800.1] ( 94 ), 18 [800.1] ( 98 ), 22 [820.1] ( 102 )
                26 [804.2] ( 106 ), 30 [799.9] ( 110 ), 34 [799.9] ( 114 )
                38 [799.9] ( 118 ), 42 [800.1] ( 122 ), 46 [799.9] ( 126 )
                50 [839.2] ( 130 ), 54 [799.9] ( 134 ), 58 [799.9] ( 138 )
                62 [799.9] ( 142 ), 66 [800.2] ( 146 ), 70 [800.1] ( 150 )
                74 [800.1] ( 154 ), 78 [799.9] ( 158 )
        3:       3 [847.7] ( 83 ),  7 [1476.3] ( 87 ), 11 [799.9] ( 91 )
                15 [800.1] ( 95 ), 19 [876.6] ( 99 ), 23 [799.9] ( 103 )
                27 [883.0] ( 107 ), 31 [800.1] ( 111 ), 35 [1193.7] ( 115 )
                39 [799.9] ( 119 ), 43 [800.1] ( 123 ), 47 [799.9] ( 127 )
                51 [1095.5] ( 131 ), 55 [800.1] ( 135 ), 59 [800.3] ( 139 )
                63 [799.9] ( 143 ), 67 [800.1] ( 147 ), 71 [799.9] ( 151 )
                75 [799.9] ( 155 ), 79 [800.1] ( 159 )
        
System load averages (1min, 5min, 15min) : 0.7 %, 0.8 %, 0.8 %
Hyperthreading is enabled
HPC is enabled


Simulating `./resources/smic018/simResult/test_diffamp1_tran2.scs' on icetserver01 at 12:30:31 PM, Fri Feb 7, 2025 (process id: 217636).
Current working directory: /data/icdesign/ams/ip_migration/users/leiyuan/ipmigration
Environment variable:
    SPECTRE_DEFAULTS=-E -f psfbin
Command line:
    /opt/icdesign/CAD/cadence/SPECTRE231/tools/bin/spectre -64  \
        ./resources/smic018/simResult/test_diffamp1_tran2.scs +escchars  \
        =log ./resources/smic018/simResult/psf/outtran2_spectre.out  \
        -format psfascii -raw ./resources/smic018/simResult/psf  \
        ++aps=moderate +mt=32 +lqtimeout 900 -maxw 5 -maxn 5 +logstatus

Licensing Information:
[12:30:32.287578] Configured Lic search path (22.01-s002): 5280@10.6.64.182:27001@10.6.126.11

Licensing Information:
[12:30:32.397794] Periodic Lic check successful

Loading /opt/icdesign/CAD/cadence/SPECTRE231/tools.lnx86/cmi/lib/64bit/5.0/libinfineon_sh.so ...
Loading /opt/icdesign/CAD/cadence/SPECTRE231/tools.lnx86/cmi/lib/64bit/5.0/libphilips_sh.so ...
Loading /opt/icdesign/CAD/cadence/SPECTRE231/tools.lnx86/cmi/lib/64bit/5.0/libsparam_sh.so ...
Loading /opt/icdesign/CAD/cadence/SPECTRE231/tools.lnx86/cmi/lib/64bit/5.0/libstmodels_sh.so ...
Reading file:  /data/icdesign/ams/ip_migration/users/leiyuan/ipmigration/resources/smic018/simResult/test_diffamp1_tran2.scs
Reading file:  /opt/icdesign/CAD/cadence/SPECTRE231/tools.lnx86/spectre/etc/configs/spectre.cfg
Reading file:  /usr/include/stdc-predef.h
Reading file:  /data/icdesign/ams/ip_migration/users/leiyuan/ipmigration/resources/smic018/models/spectre/ms018_v1p7_spe.lib
Reading file:  /data/icdesign/ams/ip_migration/users/leiyuan/ipmigration/resources/smic018/models/spectre/ms018_v1p7_spe.mdl
Reading file:  /home/shunqidai/Sizing/SizingDemoLinuxSpectre_integer_stdcell/smic018/ckt_netlist/twoStageOpamp2.scs
Time for NDB Parsing: CPU = 259.809 ms, elapsed = 974.338 ms.
Time accumulated: CPU = 462.129 ms, elapsed = 974.343 ms.
Peak resident memory used = 104 Mbytes.

Time for Elaboration: CPU = 37.606 ms, elapsed = 37.7641 ms.
Time accumulated: CPU = 500.035 ms, elapsed = 1.01241 s.
Peak resident memory used = 110 Mbytes.


Notice from spectre during hierarchy flattening.
    The value 'psf' specified for the 'checklimitdest' option will no longer be supported in future releases. Use 'spectre -h' to see other recommended values for the 'checklimitdest' option.


Time for EDB Visiting: CPU = 1.579 ms, elapsed = 2.877 ms.
Time accumulated: CPU = 501.827 ms, elapsed = 1.0155 s.
Peak resident memory used = 111 Mbytes.


Notice from spectre during initial setup.
    Multithreading is disabled due to the size of the design being too small.


Global user options:
            vabstol = 1e-06
            iabstol = 1e-12
               temp = 27
               gmin = 1e-12
             rforce = 1
           maxnotes = 5
           maxwarns = 5
             digits = 5
               cols = 80
             pivrel = 0.001
           sensfile = ../psf/sens.output
     checklimitdest = psf
               save = allpub
     subcktprobelvl = 2
             reltol = 0.001
               tnom = 27
             scalem = 1
              scale = 1e-06

Scoped user options:

Circuit inventory:
              nodes 9
            bsim3v3 8     
          capacitor 2     
            isource 1     
           resistor 1     
            vsource 3     

Analysis and control statement inventory:
               tran 1     

Output statements:
             .probe 0     
           .measure 0     
               save 0     


Notice from spectre during initial setup.
    Fast APS enabled.

Time for parsing: CPU = 7.095 ms, elapsed = 8.8861 ms.
Time accumulated: CPU = 509.112 ms, elapsed = 1.02457 s.
Peak resident memory used = 113 Mbytes.

~~~~~~~~~~~~~~~~~~~~~~
Pre-Simulation Summary
~~~~~~~~~~~~~~~~~~~~~~
   -   (Fast APS) Multi-threading. The recommended number of threads is 1, consider adding +mt=1 on command line.
~~~~~~~~~~~~~~~~~~~~~~

***************************************************
Transient Analysis `outtran2': time = (0 s -> 1 us)
***************************************************
DC simulation time: CPU = 1.611 ms, elapsed = 1.61505 ms.

Opening the PSFASCII file ./resources/smic018/simResult/psf/outtran2.tran.tran ...
Important parameter values:
    start = 0 s
    outputstart = 0 s
    stop = 1 us
    step = 1 ns
    maxstep = 20 ns
    ic = all
    useprevic = no
    skipdc = no
    reltol = 1e-03
    abstol(V) = 1 uV
    abstol(I) = 1 pA
    temp = 27 C
    tnom = 27 C
    tempeffects = all
    errpreset = moderate
    method = traponly
    lteratio = 3.5
    relref = sigglobal
    cmin = 0 F
    gmin = 1 pS
    rabsshort = 1 mOhm


Notice from spectre during transient analysis `outtran2'.
    Multithreading is disabled due to the size of the design being too small.


Output and IC/nodeset summary:
                 save   9       (current)
                 save   9       (voltage)

    outtran2: time = 31.84 ns    (3.18 %), step = 7.014 ns     (701 m%)
    outtran2: time = 81.37 ns    (8.14 %), step = 16.16 ns     (1.62 %)
    outtran2: time = 136.5 ns    (13.7 %), step = 19.87 ns     (1.99 %)
    outtran2: time = 176.5 ns    (17.7 %), step = 20 ns           (2 %)
    outtran2: time = 236.5 ns    (23.7 %), step = 20 ns           (2 %)
    outtran2: time = 276.5 ns    (27.7 %), step = 20 ns           (2 %)
    outtran2: time = 336.5 ns    (33.7 %), step = 20 ns           (2 %)
    outtran2: time = 376.5 ns    (37.7 %), step = 20 ns           (2 %)
    outtran2: time = 436.5 ns    (43.7 %), step = 20 ns           (2 %)
    outtran2: time = 476.5 ns    (47.7 %), step = 20 ns           (2 %)

Notice from spectre at time = 536.544 ns during transient analysis `outtran2'.
    Found trapezoidal ringing on node Xopamp.net3.

    outtran2: time = 536.5 ns    (53.7 %), step = 20 ns           (2 %)

Notice from spectre at time = 556.544 ns during transient analysis `outtran2'.
    Found trapezoidal ringing on node Xopamp.net3.
Notice from spectre at time = 576.544 ns during transient analysis `outtran2'.
    Found trapezoidal ringing on node Xopamp.net3.

    outtran2: time = 576.5 ns    (57.7 %), step = 20 ns           (2 %)

Notice from spectre at time = 596.544 ns during transient analysis `outtran2'.
    Found trapezoidal ringing on node Xopamp.net3.
Notice from spectre at time = 616.544 ns during transient analysis `outtran2'.
    Found trapezoidal ringing on node Xopamp.net3.
        Further occurrences of this notice will be suppressed.

    outtran2: time = 636.5 ns    (63.7 %), step = 20 ns           (2 %)
    outtran2: time = 676.5 ns    (67.7 %), step = 20 ns           (2 %)
    outtran2: time = 736.5 ns    (73.7 %), step = 20 ns           (2 %)
    outtran2: time = 776.5 ns    (77.7 %), step = 20 ns           (2 %)
    outtran2: time = 836.5 ns    (83.7 %), step = 20 ns           (2 %)
    outtran2: time = 876.5 ns    (87.7 %), step = 20 ns           (2 %)
    outtran2: time = 936.5 ns    (93.7 %), step = 20 ns           (2 %)
    outtran2: time = 976.5 ns    (97.7 %), step = 20 ns           (2 %)
Number of accepted tran steps =             71

Notice from spectre during transient analysis `outtran2'.
    Trapezoidal ringing is detected during tran analysis.
        Please use method=trap for better results and performance.


Maximum value achieved for any signal of each quantity: 
V: V(dd) = 3.3 V
I: I(vdd:p) = 74.5 uA
If your circuit contains signals of the same quantity that are vastly different in size (such as high voltage circuitry combined with low voltage control circuitry), you should consider specifying global option `bin_relref=yes'.

~~~~~~~~~~~~~~~~~~~~~~~~~~~~~~~~~
Post-Transient Simulation Summary
~~~~~~~~~~~~~~~~~~~~~~~~~~~~~~~~~
~~~~~~~~~~~~~~~~~~~~~~~~~~~~~~~~~


During simulation, the CPU load for active processors is :
         4 (4.6 %)       5 (1.1 %)      10 (1.1 %)      11 (2.3 %)
        13 (1.1 %)      14 (10.5 %)     20 (1.2 %)      26 (1.1 %)
        28 (1.1 %)      35 (3.4 %)      36 (1.2 %)      47 (1.1 %)
        48 (3.4 %)      52 (1.1 %)      53 (1.1 %)      71 (1.1 %)
        72 (22.1 %)     84 (1.1 %)      85 (1.2 %)      86 (17.4 %)
        88 (2.3 %)      96 (1.2 %)      100 (2.3 %)     104 (2.3 %)
        108 (2.4 %)     112 (2.3 %)     116 (3.5 %)     
        Total: 94.8%
Initial condition solution time: CPU = 1.705 ms, elapsed = 1.71089 ms.
Intrinsic tran analysis time:    CPU = 13.826 ms, elapsed = 16.098 ms.
Total time required for tran analysis `outtran2': CPU = 17.744 ms, elapsed = 20.525 ms, util. = 86.5%.
Time accumulated: CPU = 533.895 ms, elapsed = 1.05305 s.
Peak resident memory used = 116 Mbytes.


Notice from spectre.
    20 notices suppressed.

Licensing Information:
Lic Summary:
[12:30:32.217152] Cdslmd servers:5280@10.6.64.182:27001@10.6.126.11
[12:30:32.217200] Feature usage summary:
[12:30:32.217201] Virtuoso_Multi_mode_Simulation


Aggregate audit (12:30:32 PM, Fri Feb 7, 2025):
Time used: CPU = 536 ms, elapsed = 1.06 s, util. = 50.8%.
Time spent in licensing: elapsed = 450 ms, percentage of total = 42.6%.
Peak memory used = 116 Mbytes.
Simulation started at: 12:30:31 PM, Fri Feb 7, 2025, ended at: 12:30:32 PM, Fri Feb 7, 2025, with elapsed time (wall clock): 1.06 s.
spectre completes with 0 errors, 0 warnings, and 12 notices.
