
Spectre (R) Circuit Simulator
Version 23.1.0.063 64bit -- 10 Jun 2023
Copyright (C) 1989-2023 Cadence Design Systems, Inc. All rights reserved worldwide. Cadence and Spectre are registered trademarks of Cadence Design Systems, Inc. All others are the property of their respective holders.

Includes RSA BSAFE(R) Cryptographic or Security Protocol Software from RSA Security, Inc.

User: shunqidai   Host: icetserver01   HostID: 7F0100   PID: 250166
Memory  available: 380.6672 GB  physical: 404.9105 GB
Linux   : CentOS Linux release 7 (Core)
CPU Type: Intel(R) Xeon(R) Gold 6230 CPU @ 2.10GHz
        Socket: Processors [Frequency] (Hyperthreaded Processor)
        0:       0 [881.7] ( 80 ),  4 [800.1] ( 84 ),  8 [820.6] ( 88 )
                12 [889.0] ( 92 ), 16 [924.4] ( 96 ), 20 [799.9] ( 100 )
                24 [852.5] ( 104 ), 28 [872.0] ( 108 ), 32 [799.9] ( 112 )
                36 [815.7] ( 116 ), 40 [800.2] ( 120 ), 44 [828.0] ( 124 )
                48 [799.9] ( 128 ), 52 [799.9] ( 132 ), 56 [799.9] ( 136 )
                60 [800.1] ( 140 ), 64 [799.9] ( 144 ), 68 [1597.7] ( 148 )
                72 [800.1] ( 152 ), 76 [810.3] ( 156 )
        1:       1 [799.9] ( 81 ),  5 [1049.2] ( 85 ),  9 [800.2] ( 89 )
                13 [799.9] ( 93 ), 17 [799.9] ( 97 ), 21 [799.9] ( 101 )
                25 [799.9] ( 105 ), 29 [1043.2] ( 109 ), 33 [799.9] ( 113 )
                37 [799.9] ( 117 ), 41 [799.9] ( 121 ), 45 [821.7] ( 125 )
                49 [799.9] ( 129 ), 53 [959.6] ( 133 ), 57 [799.9] ( 137 )
                61 [799.9] ( 141 ), 65 [982.6] ( 145 ), 69 [875.0] ( 149 )
                73 [865.6] ( 153 ), 77 [887.1] ( 157 )
        2:       2 [819.0] ( 82 ),  6 [1563.1] ( 86 ), 10 [893.6] ( 90 )
                14 [799.9] ( 94 ), 18 [800.1] ( 98 ), 22 [800.1] ( 102 )
                26 [799.9] ( 106 ), 30 [800.1] ( 110 ), 34 [800.1] ( 114 )
                38 [799.9] ( 118 ), 42 [799.9] ( 122 ), 46 [800.1] ( 126 )
                50 [800.1] ( 130 ), 54 [799.9] ( 134 ), 58 [800.1] ( 138 )
                62 [799.9] ( 142 ), 66 [799.9] ( 146 ), 70 [800.1] ( 150 )
                74 [800.1] ( 154 ), 78 [800.1] ( 158 )
        3:       3 [800.1] ( 83 ),  7 [800.8] ( 87 ), 11 [869.9] ( 91 )
                15 [984.0] ( 95 ), 19 [855.0] ( 99 ), 23 [800.1] ( 103 )
                27 [799.9] ( 107 ), 31 [835.1] ( 111 ), 35 [800.1] ( 115 )
                39 [800.1] ( 119 ), 43 [800.1] ( 123 ), 47 [799.9] ( 127 )
                51 [799.9] ( 131 ), 55 [800.1] ( 135 ), 59 [799.9] ( 139 )
                63 [799.9] ( 143 ), 67 [799.9] ( 147 ), 71 [799.9] ( 151 )
                75 [837.7] ( 155 ), 79 [799.9] ( 159 )
        
System load averages (1min, 5min, 15min) : 0.3 %, 0.6 %, 0.7 %
Hyperthreading is enabled
HPC is enabled


Simulating `./smic40/simResult/test_diffamp1_tran2.scs' on icetserver01 at 10:03:29 AM, Thur Dec 19, 2024 (process id: 250166).
Current working directory: /home/shunqidai/Sizing/SizingDemoLinuxSpectre_integer_stdcell
Environment variable:
    SPECTRE_DEFAULTS=-E -f psfbin
Command line:
    /opt/icdesign/CAD/cadence/SPECTRE231/tools/bin/spectre -64  \
        ./smic40/simResult/test_diffamp1_tran2.scs +escchars =log  \
        ./smic40/simResult/psf/outtran2_spectre.out -format psfascii  \
        -raw ./smic40/simResult/psf ++aps=moderate +mt=32 +lqtimeout  \
        900 -maxw 5 -maxn 5 +logstatus

Licensing Information:
[10:03:30.287546] Configured Lic search path (22.01-s002): 5280@10.6.64.182:27001@10.6.126.11

Licensing Information:
[10:03:30.376035] Periodic Lic check successful

Loading /opt/icdesign/CAD/cadence/SPECTRE231/tools.lnx86/cmi/lib/64bit/5.0/libinfineon_sh.so ...
Loading /opt/icdesign/CAD/cadence/SPECTRE231/tools.lnx86/cmi/lib/64bit/5.0/libphilips_sh.so ...
Loading /opt/icdesign/CAD/cadence/SPECTRE231/tools.lnx86/cmi/lib/64bit/5.0/libsparam_sh.so ...
Loading /opt/icdesign/CAD/cadence/SPECTRE231/tools.lnx86/cmi/lib/64bit/5.0/libstmodels_sh.so ...
Reading file:  /home/shunqidai/Sizing/SizingDemoLinuxSpectre_integer_stdcell/smic40/simResult/test_diffamp1_tran2.scs
Reading file:  /opt/icdesign/CAD/cadence/SPECTRE231/tools.lnx86/spectre/etc/configs/spectre.cfg
Reading file:  /usr/include/stdc-predef.h
Reading file:  /home/shunqidai/Sizing/SizingDemoLinuxSpectre_integer_stdcell/smic40/models/spectre/l0040ll_v1p4_1r_spe.lib
Reading file:  /home/shunqidai/Sizing/SizingDemoLinuxSpectre_integer_stdcell/smic40/models/spectre/l0040ll_v1p4_1r_spe.mdl
Reading file:  /home/shunqidai/Sizing/SizingDemoLinuxSpectre_integer_stdcell/smic40/models/spectre/l0040ll_lpe_v1p4_1r_n11ll_spe.mdl
Reading file:  /home/shunqidai/Sizing/SizingDemoLinuxSpectre_integer_stdcell/smic40/models/spectre/l0040ll_lpe_v1p4_1r_p11ll_spe.mdl
Reading file:  /home/shunqidai/Sizing/SizingDemoLinuxSpectre_integer_stdcell/smic40/models/spectre/l0040ll_lpe_v1p4_1r_nhvt11ll_spe.mdl
Reading file:  /home/shunqidai/Sizing/SizingDemoLinuxSpectre_integer_stdcell/smic40/models/spectre/l0040ll_lpe_v1p4_1r_phvt11ll_spe.mdl
Reading file:  /home/shunqidai/Sizing/SizingDemoLinuxSpectre_integer_stdcell/smic40/models/spectre/l0040ll_lpe_v1p4_1r_nlvt11ll_spe.mdl
Reading file:  /home/shunqidai/Sizing/SizingDemoLinuxSpectre_integer_stdcell/smic40/models/spectre/l0040ll_lpe_v1p4_1r_plvt11ll_spe.mdl
Reading file:  /home/shunqidai/Sizing/SizingDemoLinuxSpectre_integer_stdcell/smic40/models/spectre/l0040ll_lpe_v1p4_1r_n25ll_spe.mdl
Reading file:  /home/shunqidai/Sizing/SizingDemoLinuxSpectre_integer_stdcell/smic40/models/spectre/l0040ll_lpe_v1p4_1r_nod33ll_spe.mdl
Reading file:  /home/shunqidai/Sizing/SizingDemoLinuxSpectre_integer_stdcell/smic40/models/spectre/l0040ll_lpe_v1p4_1r_nud18ll_spe.mdl
Reading file:  /home/shunqidai/Sizing/SizingDemoLinuxSpectre_integer_stdcell/smic40/models/spectre/l0040ll_lpe_v1p4_1r_p25ll_spe.mdl
Reading file:  /home/shunqidai/Sizing/SizingDemoLinuxSpectre_integer_stdcell/smic40/models/spectre/l0040ll_lpe_v1p4_1r_pod33ll_spe.mdl
Reading file:  /home/shunqidai/Sizing/SizingDemoLinuxSpectre_integer_stdcell/smic40/models/spectre/l0040ll_lpe_v1p4_1r_pud18ll_spe.mdl
Reading file:  /home/shunqidai/Sizing/SizingDemoLinuxSpectre_integer_stdcell/smic40/ckt_netlist/twoStageOpamp2.scs
Time for NDB Parsing: CPU = 538.096 ms, elapsed = 1.27798 s.
Time accumulated: CPU = 745.628 ms, elapsed = 1.27798 s.
Peak resident memory used = 108 Mbytes.


Warning from spectre during hierarchy flattening.
    WARNING (SFE-1131): Scope option `scale' specified with scope `TopCircuit' at line `30' has also been specified at line `29' in file `./smic40/simResult/test_diffamp1_tran2.scs'. As a result, the last specified value will be used for simulation.
    WARNING (SFE-884): "/home/shunqidai/Sizing/SizingDemoLinuxSpectre_integer_stdcell/smic40/models/spectre/l0040ll_v1p4_1r_spe.lib" 30: The option 'gmin' is deleted because it is redefined at './smic40/simResult/test_diffamp1_tran2.scs':line '29'.

Time for Elaboration: CPU = 20.656 ms, elapsed = 20.798 ms.
Time accumulated: CPU = 766.385 ms, elapsed = 1.29888 s.
Peak resident memory used = 115 Mbytes.


Notice from spectre during hierarchy flattening.
    The value 'psf' specified for the 'checklimitdest' option will no longer be supported in future releases. Use 'spectre -h' to see other recommended values for the 'checklimitdest' option.


Time for EDB Visiting: CPU = 1.004 ms, elapsed = 1.00708 ms.
Time accumulated: CPU = 767.481 ms, elapsed = 1.29998 s.
Peak resident memory used = 116 Mbytes.


Notice from spectre during initial setup.
    Multithreading is disabled due to the size of the design being too small.


Global user options:
            vabstol = 1e-06
            iabstol = 1e-12
               temp = 27
               gmin = 1e-12
             rforce = 1
           maxnotes = 5
           maxwarns = 5
             digits = 5
               cols = 80
             pivrel = 0.001
           sensfile = ../psf/sens.output
     checklimitdest = psf
               save = allpub
     subcktprobelvl = 2
             reltol = 0.001
               tnom = 27
             scalem = 1
              scale = 1e-06

Scoped user options:

Circuit inventory:
              nodes 9
              bsim4 8     
          capacitor 2     
            isource 1     
           resistor 1     
            vsource 3     

Analysis and control statement inventory:
               tran 1     

Output statements:
             .probe 0     
           .measure 0     
               save 0     


Notice from spectre during initial setup.
    Fast APS enabled.

Time for parsing: CPU = 3.859 ms, elapsed = 5.78403 ms.
Time accumulated: CPU = 771.419 ms, elapsed = 1.30584 s.
Peak resident memory used = 118 Mbytes.

~~~~~~~~~~~~~~~~~~~~~~
Pre-Simulation Summary
~~~~~~~~~~~~~~~~~~~~~~
   -   (Fast APS) Multi-threading. The recommended number of threads is 1, consider adding +mt=1 on command line.
~~~~~~~~~~~~~~~~~~~~~~

***************************************************
Transient Analysis `outtran2': time = (0 s -> 1 us)
***************************************************
DC simulation time: CPU = 854 us, elapsed = 856.161 us.

Opening the PSFASCII file ./smic40/simResult/psf/outtran2.tran.tran ...
Important parameter values:
    start = 0 s
    outputstart = 0 s
    stop = 1 us
    step = 1 ns
    maxstep = 20 ns
    ic = all
    useprevic = no
    skipdc = no
    reltol = 1e-03
    abstol(V) = 1 uV
    abstol(I) = 1 pA
    temp = 27 C
    tnom = 27 C
    tempeffects = all
    errpreset = moderate
    method = traponly
    lteratio = 3.5
    relref = sigglobal
    cmin = 0 F
    gmin = 1 pS
    rabsshort = 1 mOhm


Notice from spectre during transient analysis `outtran2'.
    Multithreading is disabled due to the size of the design being too small.


Output and IC/nodeset summary:
                 save   41      (current)
                 save   9       (voltage)

    outtran2: time = 25.35 ns    (2.54 %), step = 5.355 ns     (535 m%)
    outtran2: time = 84.96 ns     (8.5 %), step = 12 ns         (1.2 %)
    outtran2: time = 126.4 ns    (12.6 %), step = 3.271 ns     (327 m%)
    outtran2: time = 190.3 ns      (19 %), step = 15.56 ns     (1.56 %)
    outtran2: time = 236.4 ns    (23.6 %), step = 14.23 ns     (1.42 %)
    outtran2: time = 281.8 ns    (28.2 %), step = 7.853 ns     (785 m%)
    outtran2: time = 335.9 ns    (33.6 %), step = 13.28 ns     (1.33 %)
    outtran2: time = 385.6 ns    (38.6 %), step = 14.9 ns      (1.49 %)
    outtran2: time = 428.8 ns    (42.9 %), step = 15.76 ns     (1.58 %)
    outtran2: time = 478.2 ns    (47.8 %), step = 17.33 ns     (1.73 %)
    outtran2: time = 535.8 ns    (53.6 %), step = 16.19 ns     (1.62 %)
    outtran2: time = 579.5 ns      (58 %), step = 13.14 ns     (1.31 %)
    outtran2: time = 636.3 ns    (63.6 %), step = 15.46 ns     (1.55 %)
    outtran2: time = 685.9 ns    (68.6 %), step = 17.44 ns     (1.74 %)
    outtran2: time = 727.5 ns    (72.7 %), step = 14.82 ns     (1.48 %)
    outtran2: time = 788.5 ns    (78.9 %), step = 13.81 ns     (1.38 %)
    outtran2: time = 827.6 ns    (82.8 %), step = 4.221 ns     (422 m%)
    outtran2: time = 875.9 ns    (87.6 %), step = 13.96 ns      (1.4 %)
    outtran2: time = 935.1 ns    (93.5 %), step = 14.89 ns     (1.49 %)
    outtran2: time = 983 ns      (98.3 %), step = 17.46 ns     (1.75 %)
Number of accepted tran steps =             111

Maximum value achieved for any signal of each quantity: 
V: V(dd) = 3.3 V
I: I(vdd:p) = 57.18 uA
If your circuit contains signals of the same quantity that are vastly different in size (such as high voltage circuitry combined with low voltage control circuitry), you should consider specifying global option `bin_relref=yes'.

~~~~~~~~~~~~~~~~~~~~~~~~~~~~~~~~~
Post-Transient Simulation Summary
~~~~~~~~~~~~~~~~~~~~~~~~~~~~~~~~~
~~~~~~~~~~~~~~~~~~~~~~~~~~~~~~~~~


During simulation, the CPU load for active processors is :
        10 (44.7 %)     12 (6.1 %)      14 (1.7 %)      53 (1.7 %)
        84 (13.9 %)     87 (1.8 %)      102 (1.8 %)     118 (2.6 %)
        126 (2.6 %)     130 (1.8 %)     134 (2.7 %)     
        Total: 98.0%
Initial condition solution time: CPU = 902 us, elapsed = 905.037 us.
Intrinsic tran analysis time:    CPU = 20.369 ms, elapsed = 20.762 ms.
Total time required for tran analysis `outtran2': CPU = 22.61 ms, elapsed = 23.741 ms, util. = 95.2%.
Time accumulated: CPU = 798.478 ms, elapsed = 1.33743 s.
Peak resident memory used = 123 Mbytes.

Licensing Information:
Lic Summary:
[10:03:30.442808] Cdslmd servers:5280@10.6.64.182:27001@10.6.126.11
[10:03:30.442832] Feature usage summary:
[10:03:30.442833] Virtuoso_Multi_mode_Simulation


Aggregate audit (10:03:30 AM, Thur Dec 19, 2024):
Time used: CPU = 803 ms, elapsed = 1.34 s, util. = 59.8%.
Time spent in licensing: elapsed = 449 ms, percentage of total = 33.4%.
Peak memory used = 123 Mbytes.
Simulation started at: 10:03:29 AM, Thur Dec 19, 2024, ended at: 10:03:30 AM, Thur Dec 19, 2024, with elapsed time (wall clock): 1.34 s.
spectre completes with 0 errors, 2 warnings, and 5 notices.
