
Spectre (R) Circuit Simulator
Version 23.1.0.063 64bit -- 10 Jun 2023
Copyright (C) 1989-2023 Cadence Design Systems, Inc. All rights reserved worldwide. Cadence and Spectre are registered trademarks of Cadence Design Systems, Inc. All others are the property of their respective holders.

Includes RSA BSAFE(R) Cryptographic or Security Protocol Software from RSA Security, Inc.

User: shunqidai   Host: icetserver01   HostID: 7F0100   PID: 250356
Memory  available: 380.6588 GB  physical: 404.9105 GB

Spectre received SIGHUP sent from PID: 11724 with UID: 11243.
Process hierarchy of PID 11724 :
    PID        COMMAND
    11724      /data/icdesign/ams/ip_migration/tools/anaconda3/bin/python /data/icdesign/ams/ip_migration/tools/anaconda3/bin/spyder 
About to end simulation, please wait for a moment...

Error found by spectre.
    ERROR (SPECTRE-25): The simulation is stopped either by the user or the farm.


Aggregate audit (10:03:38 AM, Thur Dec 19, 2024):
Time used: CPU = 236 ms, elapsed = 371 ms, util. = 63.6%.
Peak memory used = 83.8 Mbytes.
Simulation started at: 10:03:37 AM, Thur Dec 19, 2024, ended at: 10:03:38 AM, Thur Dec 19, 2024, with elapsed time (wall clock): 371 ms.
spectre completes with 1 error, 0 warnings, and 0 notices.
spectre terminated prematurely due to fatal error.
