
Spectre (R) Circuit Simulator
Version 23.1.0.063 64bit -- 10 Jun 2023
Copyright (C) 1989-2023 Cadence Design Systems, Inc. All rights reserved worldwide. Cadence and Spectre are registered trademarks of Cadence Design Systems, Inc. All others are the property of their respective holders.

Includes RSA BSAFE(R) Cryptographic or Security Protocol Software from RSA Security, Inc.

User: leiyuan   Host: icetserver01   HostID: 7F0100   PID: 54490
Memory  available: 391.0297 GB  physical: 404.9105 GB
Linux   : CentOS Linux release 7 (Core)
CPU Type: Intel(R) Xeon(R) Gold 6230 CPU @ 2.10GHz
        Socket: Processors [Frequency] (Hyperthreaded Processor)
        0:       0 [864.9] ( 80 ),  4 [799.9] ( 84 ),  8 [1189.8] ( 88 )
                12 [1294.2] ( 92 ), 16 [893.8] ( 96 ), 20 [976.6] ( 100 )
                24 [799.9] ( 104 ), 28 [837.2] ( 108 ), 32 [799.9] ( 112 )
                36 [822.2] ( 116 ), 40 [799.9] ( 120 ), 44 [799.9] ( 124 )
                48 [898.4] ( 128 ), 52 [799.9] ( 132 ), 56 [799.9] ( 136 )
                60 [800.1] ( 140 ), 64 [801.9] ( 144 ), 68 [799.9] ( 148 )
                72 [880.4] ( 152 ), 76 [799.9] ( 156 )
        1:       1 [833.5] ( 81 ),  5 [802.5] ( 85 ),  9 [832.0] ( 89 )
                13 [799.9] ( 93 ), 17 [987.3] ( 97 ), 21 [925.9] ( 101 )
                25 [803.1] ( 105 ), 29 [951.3] ( 109 ), 33 [900.2] ( 113 )
                37 [799.9] ( 117 ), 41 [799.9] ( 121 ), 45 [799.9] ( 125 )
                49 [800.1] ( 129 ), 53 [898.2] ( 133 ), 57 [800.1] ( 137 )
                61 [800.1] ( 141 ), 65 [859.7] ( 145 ), 69 [799.9] ( 149 )
                73 [799.9] ( 153 ), 77 [895.2] ( 157 )
        2:       2 [821.9] ( 82 ),  6 [799.9] ( 86 ), 10 [799.9] ( 90 )
                14 [799.9] ( 94 ), 18 [800.1] ( 98 ), 22 [799.9] ( 102 )
                26 [988.1] ( 106 ), 30 [821.0] ( 110 ), 34 [800.1] ( 114 )
                38 [799.9] ( 118 ), 42 [882.7] ( 122 ), 46 [844.3] ( 126 )
                50 [799.9] ( 130 ), 54 [862.0] ( 134 ), 58 [799.9] ( 138 )
                62 [806.9] ( 142 ), 66 [799.9] ( 146 ), 70 [799.9] ( 150 )
                74 [799.9] ( 154 ), 78 [872.2] ( 158 )
        3:       3 [1766.9] ( 83 ),  7 [816.6] ( 87 ), 11 [839.9] ( 91 )
                15 [800.1] ( 95 ), 19 [881.6] ( 99 ), 23 [799.9] ( 103 )
                27 [799.9] ( 107 ), 31 [799.9] ( 111 ), 35 [840.7] ( 115 )
                39 [799.9] ( 119 ), 43 [800.1] ( 123 ), 47 [799.9] ( 127 )
                51 [799.9] ( 131 ), 55 [800.1] ( 135 ), 59 [799.9] ( 139 )
                63 [799.9] ( 143 ), 67 [799.9] ( 147 ), 71 [799.9] ( 151 )
                75 [800.1] ( 155 ), 79 [800.1] ( 159 )
        
System load averages (1min, 5min, 15min) : 0.6 %, 0.4 %, 0.3 %
Hyperthreading is enabled
HPC is enabled


Simulating `./smic018/simResult/test_diffamp1_tran2.scs' on icetserver01 at 8:14:02 PM, Fri Jan 3, 2025 (process id: 54490).
Current working directory: /data/icdesign/ams/ip_migration/users/leiyuan/ASMigration/ASOP
Environment variable:
    SPECTRE_DEFAULTS=-E -f psfbin
Command line:
    /opt/icdesign/CAD/cadence/SPECTRE231/tools/bin/spectre -64  \
        ./smic018/simResult/test_diffamp1_tran2.scs +escchars =log  \
        ./smic018/simResult/psf/outtran2_spectre.out -format psfascii  \
        -raw ./smic018/simResult/psf ++aps=moderate +mt=32 +lqtimeout  \
        900 -maxw 5 -maxn 5 +logstatus

Licensing Information:
[20:14:03.287570] Configured Lic search path (22.01-s002): 5280@10.6.64.182:27001@10.6.126.11

Licensing Information:
[20:14:03.406290] Periodic Lic check successful

Loading /opt/icdesign/CAD/cadence/SPECTRE231/tools.lnx86/cmi/lib/64bit/5.0/libinfineon_sh.so ...
Loading /opt/icdesign/CAD/cadence/SPECTRE231/tools.lnx86/cmi/lib/64bit/5.0/libphilips_sh.so ...
Loading /opt/icdesign/CAD/cadence/SPECTRE231/tools.lnx86/cmi/lib/64bit/5.0/libsparam_sh.so ...
Loading /opt/icdesign/CAD/cadence/SPECTRE231/tools.lnx86/cmi/lib/64bit/5.0/libstmodels_sh.so ...
Reading file:  /data/icdesign/ams/ip_migration/users/leiyuan/ASMigration/ASOP/smic018/simResult/test_diffamp1_tran2.scs
Reading file:  /opt/icdesign/CAD/cadence/SPECTRE231/tools.lnx86/spectre/etc/configs/spectre.cfg
Reading file:  /usr/include/stdc-predef.h
Reading file:  /home/shunqidai/Sizing/SizingDemoLinuxSpectre_integer_stdcell/smic018/models/spectre/ms018_v1p7_spe.lib
Reading file:  /home/shunqidai/Sizing/SizingDemoLinuxSpectre_integer_stdcell/smic018/models/spectre/ms018_v1p7_spe.mdl
Reading file:  /home/shunqidai/Sizing/SizingDemoLinuxSpectre_integer_stdcell/smic018/ckt_netlist/twoStageOpamp2.scs
Time for NDB Parsing: CPU = 240.528 ms, elapsed = 913.115 ms.
Time accumulated: CPU = 423.711 ms, elapsed = 913.121 ms.
Peak resident memory used = 102 Mbytes.

Time for Elaboration: CPU = 38.689 ms, elapsed = 38.862 ms.
Time accumulated: CPU = 462.707 ms, elapsed = 952.29 ms.
Peak resident memory used = 108 Mbytes.


Notice from spectre during hierarchy flattening.
    The value 'psf' specified for the 'checklimitdest' option will no longer be supported in future releases. Use 'spectre -h' to see other recommended values for the 'checklimitdest' option.


Time for EDB Visiting: CPU = 1.683 ms, elapsed = 2.24113 ms.
Time accumulated: CPU = 464.606 ms, elapsed = 954.748 ms.
Peak resident memory used = 109 Mbytes.


Notice from spectre during initial setup.
    Multithreading is disabled due to the size of the design being too small.


Global user options:
            vabstol = 1e-06
            iabstol = 1e-12
               temp = 27
               gmin = 1e-12
             rforce = 1
           maxnotes = 5
           maxwarns = 5
             digits = 5
               cols = 80
             pivrel = 0.001
           sensfile = ../psf/sens.output
     checklimitdest = psf
               save = allpub
     subcktprobelvl = 2
             reltol = 0.001
               tnom = 27
             scalem = 1
              scale = 1e-06

Scoped user options:

Circuit inventory:
              nodes 9
            bsim3v3 8     
          capacitor 2     
            isource 1     
           resistor 1     
            vsource 3     

Analysis and control statement inventory:
               tran 1     

Output statements:
             .probe 0     
           .measure 0     
               save 0     


Notice from spectre during initial setup.
    Fast APS enabled.

Time for parsing: CPU = 7.269 ms, elapsed = 10.8309 ms.
Time accumulated: CPU = 472.062 ms, elapsed = 965.765 ms.
Peak resident memory used = 111 Mbytes.

~~~~~~~~~~~~~~~~~~~~~~
Pre-Simulation Summary
~~~~~~~~~~~~~~~~~~~~~~
   -   (Fast APS) Multi-threading. The recommended number of threads is 1, consider adding +mt=1 on command line.
~~~~~~~~~~~~~~~~~~~~~~

***************************************************
Transient Analysis `outtran2': time = (0 s -> 1 us)
***************************************************
DC simulation time: CPU = 1.565 ms, elapsed = 1.56879 ms.

Opening the PSFASCII file ./smic018/simResult/psf/outtran2.tran.tran ...
Important parameter values:
    start = 0 s
    outputstart = 0 s
    stop = 1 us
    step = 1 ns
    maxstep = 20 ns
    ic = all
    useprevic = no
    skipdc = no
    reltol = 1e-03
    abstol(V) = 1 uV
    abstol(I) = 1 pA
    temp = 27 C
    tnom = 27 C
    tempeffects = all
    errpreset = moderate
    method = traponly
    lteratio = 3.5
    relref = sigglobal
    cmin = 0 F
    gmin = 1 pS
    rabsshort = 1 mOhm


Notice from spectre during transient analysis `outtran2'.
    Multithreading is disabled due to the size of the design being too small.


Output and IC/nodeset summary:
                 save   9       (current)
                 save   9       (voltage)

    outtran2: time = 33.66 ns    (3.37 %), step = 8.831 ns     (883 m%)
    outtran2: time = 83.84 ns    (8.38 %), step = 20 ns           (2 %)
    outtran2: time = 126.4 ns    (12.6 %), step = 3.842 ns     (384 m%)
    outtran2: time = 175.3 ns    (17.5 %), step = 13.9 ns      (1.39 %)
    outtran2: time = 237.6 ns    (23.8 %), step = 19.77 ns     (1.98 %)
    outtran2: time = 277.6 ns    (27.8 %), step = 20 ns           (2 %)
    outtran2: time = 337.6 ns    (33.8 %), step = 20 ns           (2 %)
    outtran2: time = 377.6 ns    (37.8 %), step = 20 ns           (2 %)
    outtran2: time = 437.6 ns    (43.8 %), step = 20 ns           (2 %)
    outtran2: time = 477.6 ns    (47.8 %), step = 20 ns           (2 %)
    outtran2: time = 537.6 ns    (53.8 %), step = 20 ns           (2 %)
    outtran2: time = 577.6 ns    (57.8 %), step = 20 ns           (2 %)

Notice from spectre at time = 637.647 ns during transient analysis `outtran2'.
    Found trapezoidal ringing on node vdd:p.

    outtran2: time = 637.6 ns    (63.8 %), step = 20 ns           (2 %)

Notice from spectre at time = 657.647 ns during transient analysis `outtran2'.
    Found trapezoidal ringing on node vdd:p.
Notice from spectre at time = 677.647 ns during transient analysis `outtran2'.
    Found trapezoidal ringing on node vdd:p.

    outtran2: time = 677.6 ns    (67.8 %), step = 20 ns           (2 %)

Notice from spectre at time = 697.647 ns during transient analysis `outtran2'.
    Found trapezoidal ringing on node vdd:p.
Notice from spectre at time = 717.647 ns during transient analysis `outtran2'.
    Found trapezoidal ringing on node vdd:p.
        Further occurrences of this notice will be suppressed.

    outtran2: time = 737.6 ns    (73.8 %), step = 20 ns           (2 %)
    outtran2: time = 777.6 ns    (77.8 %), step = 20 ns           (2 %)
    outtran2: time = 837.6 ns    (83.8 %), step = 20 ns           (2 %)
    outtran2: time = 877.6 ns    (87.8 %), step = 20 ns           (2 %)
    outtran2: time = 937.6 ns    (93.8 %), step = 20 ns           (2 %)
    outtran2: time = 977.6 ns    (97.8 %), step = 20 ns           (2 %)
Number of accepted tran steps =             76

Notice from spectre during transient analysis `outtran2'.
    Trapezoidal ringing is detected during tran analysis.
        Please use method=trap for better results and performance.


Maximum value achieved for any signal of each quantity: 
V: V(dd) = 3.3 V
I: I(vdd:p) = 54.04 uA
If your circuit contains signals of the same quantity that are vastly different in size (such as high voltage circuitry combined with low voltage control circuitry), you should consider specifying global option `bin_relref=yes'.

~~~~~~~~~~~~~~~~~~~~~~~~~~~~~~~~~
Post-Transient Simulation Summary
~~~~~~~~~~~~~~~~~~~~~~~~~~~~~~~~~
~~~~~~~~~~~~~~~~~~~~~~~~~~~~~~~~~


During simulation, the CPU load for active processors is :
         0 (1.2 %)       3 (25.3 %)      4 (1.2 %)       9 (2.3 %)
        12 (9.2 %)      16 (1.1 %)      20 (2.3 %)      22 (1.1 %)
        24 (2.3 %)      25 (2.3 %)      29 (2.3 %)      32 (1.1 %)
        33 (1.2 %)      35 (2.3 %)      36 (1.2 %)      37 (2.3 %)
        38 (3.5 %)      39 (1.1 %)      40 (1.1 %)      41 (1.2 %)
        42 (4.6 %)      44 (1.1 %)      48 (1.1 %)      49 (1.1 %)
        54 (2.3 %)      63 (1.1 %)      64 (1.2 %)      65 (1.1 %)
        68 (1.1 %)      76 (2.3 %)      78 (1.1 %)      80 (2.3 %)
        84 (17.2 %)     87 (2.3 %)      88 (1.1 %)      99 (1.1 %)
        103 (1.1 %)     108 (2.3 %)     111 (1.2 %)     115 (1.1 %)
        119 (2.3 %)     127 (2.3 %)     148 (1.2 %)     
        Total: 119.5%
Initial condition solution time: CPU = 1.659 ms, elapsed = 1.66607 ms.
Intrinsic tran analysis time:    CPU = 16.912 ms, elapsed = 19.8689 ms.
Total time required for tran analysis `outtran2': CPU = 20.865 ms, elapsed = 24.8401 ms, util. = 84%.
Time accumulated: CPU = 500.007 ms, elapsed = 999.446 ms.
Peak resident memory used = 114 Mbytes.


Notice from spectre.
    15 notices suppressed.

Licensing Information:
Lic Summary:
[20:14:03.162482] Cdslmd servers:5280@10.6.64.182:27001@10.6.126.11
[20:14:03.162536] Feature usage summary:
[20:14:03.162538] Virtuoso_Multi_mode_Simulation


Aggregate audit (8:14:03 PM, Fri Jan 3, 2025):
Time used: CPU = 502 ms, elapsed = 1 s, util. = 50.1%.
Time spent in licensing: elapsed = 650 ms, percentage of total = 64.9%.
Peak memory used = 115 Mbytes.
Simulation started at: 8:14:02 PM, Fri Jan 3, 2025, ended at: 8:14:03 PM, Fri Jan 3, 2025, with elapsed time (wall clock): 1 s.
spectre completes with 0 errors, 0 warnings, and 12 notices.
